
     RDKit          3D

 36 39  0  0  0  0  0  0  0  0999 V2000
  -14.5901  -40.6807  -11.0932 C   0  0  0  0  0  0  0  0  0  0  0  0
  -14.5602  -39.4575  -10.1953 C   0  0  0  0  0  0  0  0  0  0  0  0
  -13.2277  -38.7887  -10.2126 C   0  0  0  0  0  0  0  0  0  0  0  0
  -15.0047  -39.7377   -8.8731 N   0  0  0  0  0  0  0  0  0  0  0  0
  -15.0513  -38.7213   -7.9165 C   0  0  0  0  0  0  0  0  0  0  0  0
  -16.1613  -38.7015   -6.9258 C   0  0  1  0  0  0  0  0  0  0  0  0
  -16.6538  -37.4657   -6.5894 O   0  0  0  0  0  0  0  0  0  0  0  0
  -17.3188  -39.6283   -7.4010 C   0  0  2  0  0  0  0  0  0  0  0  0
  -18.1117  -40.1577   -6.2777 C   0  0  0  0  0  0  0  0  0  0  0  0
  -19.5070  -39.7165   -5.9978 C   0  0  0  0  0  0  0  0  0  0  0  0
  -19.7529  -39.8828   -4.5953 C   0  0  0  0  0  0  0  0  0  0  0  0
  -20.9514  -39.6440   -4.0008 C   0  0  0  0  0  0  0  0  0  0  0  0
  -21.9375  -39.2251   -4.8444 C   0  0  0  0  0  0  0  0  0  0  0  0
  -21.7550  -39.0407   -6.2483 C   0  0  0  0  0  0  0  0  0  0  0  0
  -23.0348  -38.6111   -6.8459 C   0  0  0  0  0  0  0  0  0  0  0  0
  -23.4589  -38.7957   -8.2202 C   0  0  0  0  0  0  0  0  0  0  0  0
  -23.0380  -40.0958   -8.8352 C   0  0  0  0  0  0  0  0  0  0  0  0
  -23.1853  -41.2286   -7.8712 C   0  0  0  0  0  0  0  0  0  0  0  0
  -22.4218  -42.4319   -8.2739 N   0  0  0  0  0  0  0  0  0  0  0  0
  -21.0252  -42.6938   -8.1911 C   0  0  0  0  0  0  0  0  0  0  0  0
  -20.8217  -43.9395   -7.5174 C   0  0  0  0  0  0  0  0  0  0  0  0
  -19.6406  -44.4537   -7.2342 N   0  0  0  0  0  0  0  0  0  0  0  0
  -18.5692  -43.7546   -7.6056 C   0  0  0  0  0  0  0  0  0  0  0  0
  -18.6633  -42.5080   -8.2796 C   0  0  0  0  0  0  0  0  0  0  0  0
  -19.9124  -41.9725   -8.5805 C   0  0  0  0  0  0  0  0  0  0  0  0
  -17.3011  -41.9644   -8.4786 C   0  0  0  0  0  0  0  0  0  0  0  0
  -16.4337  -42.8509   -8.9016 O   0  0  0  0  0  0  0  0  0  0  0  0
  -16.7870  -40.6566   -8.2856 N   0  0  0  0  0  0  0  0  0  0  0  0
  -20.5333  -39.2891   -6.8000 C   0  0  0  0  0  0  0  0  0  0  0  0
  -15.5497  -38.5000  -10.8470 C   0  0  0  0  0  0  0  0  0  0  0  0
  -15.2590  -37.1681  -10.9733 C   0  0  0  0  0  0  0  0  0  0  0  0
  -16.1834  -36.3081  -11.5479 C   0  0  0  0  0  0  0  0  0  0  0  0
  -17.3919  -36.7994  -11.9895 C   0  0  0  0  0  0  0  0  0  0  0  0
  -17.6940  -38.1334  -11.8671 C   0  0  0  0  0  0  0  0  0  0  0  0
  -19.3628  -38.7928  -12.4811 Br  0  0  0  0  0  0  0  0  0  0  0  0
  -16.7462  -38.9905  -11.2825 C   0  0  0  0  0  0  0  0  0  0  0  0
  1  2  1  0
  2  3  1  0
  2  4  1  0
  4  5  1  0
  5  6  1  0
  6  7  1  6
  6  8  1  0
  8  9  1  1
  9 10  1  0
 10 11  1  0
 11 12  2  0
 12 13  1  0
 13 14  2  0
 14 15  1  0
 15 16  1  0
 16 17  1  0
 17 18  1  0
 18 19  1  0
 19 20  1  0
 20 21  1  0
 21 22  2  0
 22 23  1  0
 23 24  2  0
 24 25  1  0
 24 26  1  0
 26 27  2  0
 26 28  1  0
 14 29  1  0
  2 30  1  0
 30 31  2  0
 31 32  1  0
 32 33  2  0
 33 34  1  0
 34 35  1  0
 34 36  2  0
 25 20  2  0
 28  8  1  0
 29 10  2  0
 36 30  1  0
M  END
$$$$
