
     RDKit          3D

 36 39  0  0  0  0  0  0  0  0999 V2000
  -16.6310  -36.4703   -9.8943 C   0  0  0  0  0  0  0  0  0  0  0  0
  -15.7928  -37.5301  -10.5855 C   0  0  0  0  0  0  0  0  0  0  0  0
  -16.5202  -38.1559  -11.7267 C   0  0  0  0  0  0  0  0  0  0  0  0
  -15.2782  -38.4985   -9.6791 N   0  0  0  0  0  0  0  0  0  0  0  0
  -15.5250  -38.3811   -8.3095 C   0  0  0  0  0  0  0  0  0  0  0  0
  -15.9325  -39.5846   -7.5352 C   0  0  1  0  0  0  0  0  0  0  0  0
  -15.2757  -39.7954   -6.3490 O   0  0  0  0  0  0  0  0  0  0  0  0
  -17.4719  -39.5736   -7.3007 C   0  0  2  0  0  0  0  0  0  0  0  0
  -18.1955  -40.4015   -8.2813 C   0  0  0  0  0  0  0  0  0  0  0  0
  -18.8469  -41.6922   -7.9215 C   0  0  0  0  0  0  0  0  0  0  0  0
  -18.8838  -42.5140   -9.0956 C   0  0  0  0  0  0  0  0  0  0  0  0
  -19.4745  -43.7368   -9.1484 C   0  0  0  0  0  0  0  0  0  0  0  0
  -20.0494  -44.1477   -7.9823 C   0  0  0  0  0  0  0  0  0  0  0  0
  -20.0460  -43.3759   -6.7811 C   0  0  0  0  0  0  0  0  0  0  0  0
  -20.7800  -44.1144   -5.7345 C   0  0  0  0  0  0  0  0  0  0  0  0
  -21.4545  -43.5498   -4.5817 C   0  0  0  0  0  0  0  0  0  0  0  0
  -22.1402  -42.2420   -4.8370 C   0  0  0  0  0  0  0  0  0  0  0  0
  -22.8370  -42.2401   -6.1594 C   0  0  0  0  0  0  0  0  0  0  0  0
  -23.1740  -40.8777   -6.6320 N   0  0  0  0  0  0  0  0  0  0  0  0
  -22.3356  -39.8783   -7.2014 C   0  0  0  0  0  0  0  0  0  0  0  0
  -22.9093  -39.4326   -8.4339 C   0  0  0  0  0  0  0  0  0  0  0  0
  -22.3594  -38.5431   -9.2377 N   0  0  0  0  0  0  0  0  0  0  0  0
  -21.1872  -38.0313   -8.8656 C   0  0  0  0  0  0  0  0  0  0  0  0
  -20.5346  -38.4066   -7.6614 C   0  0  0  0  0  0  0  0  0  0  0  0
  -21.1219  -39.3422   -6.8143 C   0  0  0  0  0  0  0  0  0  0  0  0
  -19.2280  -37.7153   -7.5863 C   0  0  0  0  0  0  0  0  0  0  0  0
  -19.2805  -36.4469   -7.9111 O   0  0  0  0  0  0  0  0  0  0  0  0
  -17.9431  -38.1970   -7.2271 N   0  0  0  0  0  0  0  0  0  0  0  0
  -19.4375  -42.1559   -6.7745 C   0  0  0  0  0  0  0  0  0  0  0  0
  -14.6255  -36.7480  -11.1740 C   0  0  0  0  0  0  0  0  0  0  0  0
  -14.8418  -35.6971  -12.0246 C   0  0  0  0  0  0  0  0  0  0  0  0
  -13.7649  -35.0130  -12.5691 C   0  0  0  0  0  0  0  0  0  0  0  0
  -12.4806  -35.3948  -12.2508 C   0  0  0  0  0  0  0  0  0  0  0  0
  -12.2523  -36.4477  -11.3992 C   0  0  0  0  0  0  0  0  0  0  0  0
  -10.4770  -36.9596  -10.9715 Br  0  0  0  0  0  0  0  0  0  0  0  0
  -13.3545  -37.1300  -10.8568 C   0  0  0  0  0  0  0  0  0  0  0  0
  1  2  1  0
  2  3  1  0
  2  4  1  0
  4  5  1  0
  5  6  1  0
  6  7  1  1
  6  8  1  0
  8  9  1  6
  9 10  1  0
 10 11  1  0
 11 12  2  0
 12 13  1  0
 13 14  2  0
 14 15  1  0
 15 16  1  0
 16 17  1  0
 17 18  1  0
 18 19  1  0
 19 20  1  0
 20 21  1  0
 21 22  2  0
 22 23  1  0
 23 24  2  0
 24 25  1  0
 24 26  1  0
 26 27  2  0
 26 28  1  0
 14 29  1  0
  2 30  1  0
 30 31  2  0
 31 32  1  0
 32 33  2  0
 33 34  1  0
 34 35  1  0
 34 36  2  0
 25 20  2  0
 28  8  1  0
 29 10  2  0
 36 30  1  0
M  END
$$$$
