
     RDKit          3D

 36 39  0  0  0  0  0  0  0  0999 V2000
  -12.4034  -41.5300   -9.8229 C   0  0  0  0  0  0  0  0  0  0  0  0
  -12.9569  -40.1524   -9.5081 C   0  0  0  0  0  0  0  0  0  0  0  0
  -11.8973  -39.2288   -9.0107 C   0  0  0  0  0  0  0  0  0  0  0  0
  -14.0815  -40.1999   -8.6378 N   0  0  0  0  0  0  0  0  0  0  0  0
  -14.6444  -39.0182   -8.1509 C   0  0  0  0  0  0  0  0  0  0  0  0
  -15.8477  -39.0880   -7.2784 C   0  0  1  0  0  0  0  0  0  0  0  0
  -16.3769  -37.8877   -6.8756 O   0  0  0  0  0  0  0  0  0  0  0  0
  -16.9478  -39.9591   -7.9533 C   0  0  2  0  0  0  0  0  0  0  0  0
  -18.1031  -40.1898   -7.0686 C   0  0  0  0  0  0  0  0  0  0  0  0
  -19.4338  -39.5613   -7.3006 C   0  0  0  0  0  0  0  0  0  0  0  0
  -20.0966  -39.4435   -6.0349 C   0  0  0  0  0  0  0  0  0  0  0  0
  -21.3636  -38.9765   -5.8817 C   0  0  0  0  0  0  0  0  0  0  0  0
  -21.9871  -38.6167   -7.0398 C   0  0  0  0  0  0  0  0  0  0  0  0
  -21.3809  -38.7103   -8.3291 C   0  0  0  0  0  0  0  0  0  0  0  0
  -22.3512  -38.2646   -9.3486 C   0  0  0  0  0  0  0  0  0  0  0  0
  -22.3839  -38.6501  -10.7461 C   0  0  0  0  0  0  0  0  0  0  0  0
  -22.0101  -40.0770  -11.0100 C   0  0  0  0  0  0  0  0  0  0  0  0
  -22.6029  -40.9942   -9.9894 C   0  0  0  0  0  0  0  0  0  0  0  0
  -21.9516  -42.3240   -9.9611 N   0  0  0  0  0  0  0  0  0  0  0  0
  -20.6965  -42.7114   -9.4130 C   0  0  0  0  0  0  0  0  0  0  0  0
  -20.8916  -43.8285   -8.5405 C   0  0  0  0  0  0  0  0  0  0  0  0
  -19.9370  -44.4036   -7.8351 N   0  0  0  0  0  0  0  0  0  0  0  0
  -18.7092  -43.8998   -7.9507 C   0  0  0  0  0  0  0  0  0  0  0  0
  -18.4106  -42.7934   -8.7896 C   0  0  0  0  0  0  0  0  0  0  0  0
  -19.4210  -42.1934   -9.5357 C   0  0  0  0  0  0  0  0  0  0  0  0
  -16.9819  -42.4408   -8.6308 C   0  0  0  0  0  0  0  0  0  0  0  0
  -16.1775  -43.4753   -8.6341 O   0  0  0  0  0  0  0  0  0  0  0  0
  -16.3493  -41.1809   -8.4747 N   0  0  0  0  0  0  0  0  0  0  0  0
  -20.1058  -39.1814   -8.4335 C   0  0  0  0  0  0  0  0  0  0  0  0
  -13.4130  -39.6224  -10.8615 C   0  0  0  0  0  0  0  0  0  0  0  0
  -13.6743  -40.4771  -11.8987 C   0  0  0  0  0  0  0  0  0  0  0  0
  -14.0652  -39.9732  -13.1306 C   0  0  0  0  0  0  0  0  0  0  0  0
  -14.1887  -38.6127  -13.3048 C   0  0  0  0  0  0  0  0  0  0  0  0
  -13.9285  -37.7464  -12.2715 C   0  0  0  0  0  0  0  0  0  0  0  0
  -14.1041  -35.8758  -12.5290 Br  0  0  0  0  0  0  0  0  0  0  0  0
  -13.5334  -38.2737  -11.0303 C   0  0  0  0  0  0  0  0  0  0  0  0
  1  2  1  0
  2  3  1  0
  2  4  1  0
  4  5  1  0
  5  6  1  0
  6  7  1  6
  6  8  1  0
  8  9  1  1
  9 10  1  0
 10 11  1  0
 11 12  2  0
 12 13  1  0
 13 14  2  0
 14 15  1  0
 15 16  1  0
 16 17  1  0
 17 18  1  0
 18 19  1  0
 19 20  1  0
 20 21  1  0
 21 22  2  0
 22 23  1  0
 23 24  2  0
 24 25  1  0
 24 26  1  0
 26 27  2  0
 26 28  1  0
 14 29  1  0
  2 30  1  0
 30 31  2  0
 31 32  1  0
 32 33  2  0
 33 34  1  0
 34 35  1  0
 34 36  2  0
 25 20  2  0
 28  8  1  0
 29 10  2  0
 36 30  1  0
M  END
$$$$
