
     RDKit          3D

 36 39  0  0  0  0  0  0  0  0999 V2000
  -13.1014  -38.1126  -10.9850 C   0  0  0  0  0  0  0  0  0  0  0  0
  -14.4812  -37.8030  -10.4340 C   0  0  0  0  0  0  0  0  0  0  0  0
  -15.0879  -36.6116  -11.0941 C   0  0  0  0  0  0  0  0  0  0  0  0
  -14.4931  -37.6967   -9.0153 N   0  0  0  0  0  0  0  0  0  0  0  0
  -14.9055  -38.7773   -8.2325 C   0  0  0  0  0  0  0  0  0  0  0  0
  -16.1233  -38.6443   -7.3880 C   0  0  1  0  0  0  0  0  0  0  0  0
  -16.7289  -37.4130   -7.3840 O   0  0  0  0  0  0  0  0  0  0  0  0
  -17.1561  -39.7482   -7.7613 C   0  0  2  0  0  0  0  0  0  0  0  0
  -18.2471  -39.8530   -6.7766 C   0  0  0  0  0  0  0  0  0  0  0  0
  -19.6421  -39.4204   -7.0707 C   0  0  0  0  0  0  0  0  0  0  0  0
  -20.2634  -39.0516   -5.8324 C   0  0  0  0  0  0  0  0  0  0  0  0
  -21.5639  -38.6739   -5.7183 C   0  0  0  0  0  0  0  0  0  0  0  0
  -22.2650  -38.6678   -6.8878 C   0  0  0  0  0  0  0  0  0  0  0  0
  -21.7033  -39.0240   -8.1511 C   0  0  0  0  0  0  0  0  0  0  0  0
  -22.7525  -38.9311   -9.1857 C   0  0  0  0  0  0  0  0  0  0  0  0
  -22.8009  -39.6517  -10.4431 C   0  0  0  0  0  0  0  0  0  0  0  0
  -22.2966  -41.0612  -10.3757 C   0  0  0  0  0  0  0  0  0  0  0  0
  -22.7543  -41.7457   -9.1282 C   0  0  0  0  0  0  0  0  0  0  0  0
  -21.9724  -42.9648   -8.8190 N   0  0  0  0  0  0  0  0  0  0  0  0
  -20.6644  -43.0932   -8.2727 C   0  0  0  0  0  0  0  0  0  0  0  0
  -20.7124  -43.9724   -7.1450 C   0  0  0  0  0  0  0  0  0  0  0  0
  -19.6781  -44.2693   -6.3822 N   0  0  0  0  0  0  0  0  0  0  0  0
  -18.5125  -43.7043   -6.6929 C   0  0  0  0  0  0  0  0  0  0  0  0
  -18.3592  -42.8181   -7.7921 C   0  0  0  0  0  0  0  0  0  0  0  0
  -19.4530  -42.5121   -8.5968 C   0  0  0  0  0  0  0  0  0  0  0  0
  -16.9679  -42.3135   -7.8131 C   0  0  0  0  0  0  0  0  0  0  0  0
  -16.0647  -43.2422   -7.6157 O   0  0  0  0  0  0  0  0  0  0  0  0
  -16.4591  -41.0038   -8.0071 N   0  0  0  0  0  0  0  0  0  0  0  0
  -20.3925  -39.3929   -8.2176 C   0  0  0  0  0  0  0  0  0  0  0  0
  -15.3166  -39.0114  -10.8371 C   0  0  0  0  0  0  0  0  0  0  0  0
  -16.6838  -38.9436  -10.8611 C   0  0  0  0  0  0  0  0  0  0  0  0
  -17.4274  -40.0622  -11.2075 C   0  0  0  0  0  0  0  0  0  0  0  0
  -16.7854  -41.2382  -11.5263 C   0  0  0  0  0  0  0  0  0  0  0  0
  -15.4146  -41.3174  -11.5048 C   0  0  0  0  0  0  0  0  0  0  0  0
  -14.5471  -42.9448  -11.9470 Br  0  0  0  0  0  0  0  0  0  0  0  0
  -14.6767  -40.1749  -11.1514 C   0  0  0  0  0  0  0  0  0  0  0  0
  1  2  1  0
  2  3  1  0
  2  4  1  0
  4  5  1  0
  5  6  1  0
  6  7  1  6
  6  8  1  0
  8  9  1  1
  9 10  1  0
 10 11  1  0
 11 12  2  0
 12 13  1  0
 13 14  2  0
 14 15  1  0
 15 16  1  0
 16 17  1  0
 17 18  1  0
 18 19  1  0
 19 20  1  0
 20 21  1  0
 21 22  2  0
 22 23  1  0
 23 24  2  0
 24 25  1  0
 24 26  1  0
 26 27  2  0
 26 28  1  0
 14 29  1  0
  2 30  1  0
 30 31  2  0
 31 32  1  0
 32 33  2  0
 33 34  1  0
 34 35  1  0
 34 36  2  0
 25 20  2  0
 28  8  1  0
 29 10  2  0
 36 30  1  0
M  END
$$$$
