
     RDKit          3D

 36 39  0  0  0  0  0  0  0  0999 V2000
  -12.6135  -39.0425   -9.6540 C   0  0  0  0  0  0  0  0  0  0  0  0
  -13.7809  -39.2471  -10.6020 C   0  0  0  0  0  0  0  0  0  0  0  0
  -13.5888  -38.5130  -11.8856 C   0  0  0  0  0  0  0  0  0  0  0  0
  -15.0351  -38.9550   -9.9973 N   0  0  0  0  0  0  0  0  0  0  0  0
  -15.0870  -38.2745   -8.7789 C   0  0  0  0  0  0  0  0  0  0  0  0
  -15.9006  -38.8325   -7.6650 C   0  0  1  0  0  0  0  0  0  0  0  0
  -16.3928  -37.9272   -6.7589 O   0  0  0  0  0  0  0  0  0  0  0  0
  -17.0583  -39.7052   -8.2334 C   0  0  2  0  0  0  0  0  0  0  0  0
  -17.8708  -40.3220   -7.1704 C   0  0  0  0  0  0  0  0  0  0  0  0
  -19.2665  -39.8943   -6.8724 C   0  0  0  0  0  0  0  0  0  0  0  0
  -19.5333  -40.1781   -5.4927 C   0  0  0  0  0  0  0  0  0  0  0  0
  -20.7383  -39.9808   -4.8960 C   0  0  0  0  0  0  0  0  0  0  0  0
  -21.7092  -39.4826   -5.7135 C   0  0  0  0  0  0  0  0  0  0  0  0
  -21.5057  -39.1800   -7.0939 C   0  0  0  0  0  0  0  0  0  0  0  0
  -22.7737  -38.6898   -7.6694 C   0  0  0  0  0  0  0  0  0  0  0  0
  -23.1798  -38.7521   -9.0601 C   0  0  0  0  0  0  0  0  0  0  0  0
  -22.7600  -39.9983   -9.7787 C   0  0  0  0  0  0  0  0  0  0  0  0
  -22.9294  -41.2083   -8.9176 C   0  0  0  0  0  0  0  0  0  0  0  0
  -22.1693  -42.3792   -9.4119 N   0  0  0  0  0  0  0  0  0  0  0  0
  -20.7760  -42.6593   -9.3332 C   0  0  0  0  0  0  0  0  0  0  0  0
  -20.5914  -43.9600   -8.7663 C   0  0  0  0  0  0  0  0  0  0  0  0
  -19.4182  -44.5067   -8.5124 N   0  0  0  0  0  0  0  0  0  0  0  0
  -18.3366  -43.7877   -8.8081 C   0  0  0  0  0  0  0  0  0  0  0  0
  -18.4118  -42.4872   -9.3739 C   0  0  0  0  0  0  0  0  0  0  0  0
  -19.6525  -41.9170   -9.6443 C   0  0  0  0  0  0  0  0  0  0  0  0
  -17.0429  -41.9403   -9.5072 C   0  0  0  0  0  0  0  0  0  0  0  0
  -16.1763  -42.7948   -9.9931 O   0  0  0  0  0  0  0  0  0  0  0  0
  -16.5218  -40.6584   -9.1959 N   0  0  0  0  0  0  0  0  0  0  0  0
  -20.2782  -39.3909   -7.6485 C   0  0  0  0  0  0  0  0  0  0  0  0
  -13.7334  -40.7348  -10.9263 C   0  0  0  0  0  0  0  0  0  0  0  0
  -14.1937  -41.6636  -10.0319 C   0  0  0  0  0  0  0  0  0  0  0  0
  -14.1194  -43.0151  -10.3359 C   0  0  0  0  0  0  0  0  0  0  0  0
  -13.5819  -43.4168  -11.5385 C   0  0  0  0  0  0  0  0  0  0  0  0
  -13.1166  -42.4937  -12.4426 C   0  0  0  0  0  0  0  0  0  0  0  0
  -12.3799  -43.0647  -14.0941 Br  0  0  0  0  0  0  0  0  0  0  0  0
  -13.1993  -41.1288  -12.1185 C   0  0  0  0  0  0  0  0  0  0  0  0
  1  2  1  0
  2  3  1  0
  2  4  1  0
  4  5  1  0
  5  6  1  0
  6  7  1  6
  6  8  1  0
  8  9  1  1
  9 10  1  0
 10 11  1  0
 11 12  2  0
 12 13  1  0
 13 14  2  0
 14 15  1  0
 15 16  1  0
 16 17  1  0
 17 18  1  0
 18 19  1  0
 19 20  1  0
 20 21  1  0
 21 22  2  0
 22 23  1  0
 23 24  2  0
 24 25  1  0
 24 26  1  0
 26 27  2  0
 26 28  1  0
 14 29  1  0
  2 30  1  0
 30 31  2  0
 31 32  1  0
 32 33  2  0
 33 34  1  0
 34 35  1  0
 34 36  2  0
 25 20  2  0
 28  8  1  0
 29 10  2  0
 36 30  1  0
M  END
$$$$
