
     RDKit          3D

 36 39  0  0  0  0  0  0  0  0999 V2000
  -14.0210  -37.6240  -10.9147 C   0  0  0  0  0  0  0  0  0  0  0  0
  -14.7552  -38.6908  -10.1231 C   0  0  0  0  0  0  0  0  0  0  0  0
  -16.1697  -38.8392  -10.5707 C   0  0  0  0  0  0  0  0  0  0  0  0
  -14.6529  -38.4972   -8.7173 N   0  0  0  0  0  0  0  0  0  0  0  0
  -15.0322  -39.5137   -7.8379 C   0  0  0  0  0  0  0  0  0  0  0  0
  -16.2231  -39.3193   -6.9674 C   0  0  1  0  0  0  0  0  0  0  0  0
  -16.6582  -38.0272   -6.8121 O   0  0  0  0  0  0  0  0  0  0  0  0
  -17.3937  -40.2241   -7.4527 C   0  0  2  0  0  0  0  0  0  0  0  0
  -18.3819  -40.4821   -6.3908 C   0  0  0  0  0  0  0  0  0  0  0  0
  -19.7498  -39.8919   -6.4025 C   0  0  0  0  0  0  0  0  0  0  0  0
  -20.1999  -39.7859   -5.0455 C   0  0  0  0  0  0  0  0  0  0  0  0
  -21.4375  -39.3534   -4.6874 C   0  0  0  0  0  0  0  0  0  0  0  0
  -22.2517  -39.0171   -5.7282 C   0  0  0  0  0  0  0  0  0  0  0  0
  -21.8621  -39.1006   -7.0992 C   0  0  0  0  0  0  0  0  0  0  0  0
  -22.9982  -38.6873   -7.9466 C   0  0  0  0  0  0  0  0  0  0  0  0
  -23.2480  -39.0808   -9.3197 C   0  0  0  0  0  0  0  0  0  0  0  0
  -22.8822  -40.4983   -9.6402 C   0  0  0  0  0  0  0  0  0  0  0  0
  -23.2742  -41.4262   -8.5359 C   0  0  0  0  0  0  0  0  0  0  0  0
  -22.5897  -42.7372   -8.6137 N   0  0  0  0  0  0  0  0  0  0  0  0
  -21.2515  -43.0868   -8.2779 C   0  0  0  0  0  0  0  0  0  0  0  0
  -21.2698  -44.2043   -7.3846 C   0  0  0  0  0  0  0  0  0  0  0  0
  -20.1968  -44.7491   -6.8445 N   0  0  0  0  0  0  0  0  0  0  0  0
  -19.0192  -44.2120   -7.1596 C   0  0  0  0  0  0  0  0  0  0  0  0
  -18.8930  -43.1022   -8.0367 C   0  0  0  0  0  0  0  0  0  0  0  0
  -20.0284  -42.5344   -8.6079 C   0  0  0  0  0  0  0  0  0  0  0  0
  -17.4681  -42.7093   -8.1140 C   0  0  0  0  0  0  0  0  0  0  0  0
  -16.6462  -43.7211   -8.2482 O   0  0  0  0  0  0  0  0  0  0  0  0
  -16.8543  -41.4315   -8.0642 N   0  0  0  0  0  0  0  0  0  0  0  0
  -20.6085  -39.5368   -7.4105 C   0  0  0  0  0  0  0  0  0  0  0  0
  -14.0326  -39.9811  -10.4890 C   0  0  0  0  0  0  0  0  0  0  0  0
  -14.4678  -40.7594  -11.5280 C   0  0  0  0  0  0  0  0  0  0  0  0
  -13.8107  -41.9431  -11.8300 C   0  0  0  0  0  0  0  0  0  0  0  0
  -12.7214  -42.3306  -11.0816 C   0  0  0  0  0  0  0  0  0  0  0  0
  -12.2769  -41.5579  -10.0370 C   0  0  0  0  0  0  0  0  0  0  0  0
  -10.7751  -42.1066   -9.0174 Br  0  0  0  0  0  0  0  0  0  0  0  0
  -12.9543  -40.3619   -9.7446 C   0  0  0  0  0  0  0  0  0  0  0  0
  1  2  1  0
  2  3  1  0
  2  4  1  0
  4  5  1  0
  5  6  1  0
  6  7  1  6
  6  8  1  0
  8  9  1  1
  9 10  1  0
 10 11  1  0
 11 12  2  0
 12 13  1  0
 13 14  2  0
 14 15  1  0
 15 16  1  0
 16 17  1  0
 17 18  1  0
 18 19  1  0
 19 20  1  0
 20 21  1  0
 21 22  2  0
 22 23  1  0
 23 24  2  0
 24 25  1  0
 24 26  1  0
 26 27  2  0
 26 28  1  0
 14 29  1  0
  2 30  1  0
 30 31  2  0
 31 32  1  0
 32 33  2  0
 33 34  1  0
 34 35  1  0
 34 36  2  0
 25 20  2  0
 28  8  1  0
 29 10  2  0
 36 30  1  0
M  END
$$$$
