
     RDKit          3D

 36 39  0  0  0  0  0  0  0  0999 V2000
  -13.8662  -42.6903   -8.6026 C   0  0  0  0  0  0  0  0  0  0  0  0
  -13.2270  -41.3187   -8.7194 C   0  0  0  0  0  0  0  0  0  0  0  0
  -11.7400  -41.4034   -8.7886 C   0  0  0  0  0  0  0  0  0  0  0  0
  -13.6686  -40.4208   -7.7079 N   0  0  0  0  0  0  0  0  0  0  0  0
  -14.6198  -39.4418   -8.0029 C   0  0  0  0  0  0  0  0  0  0  0  0
  -15.8917  -39.4038   -7.2319 C   0  0  1  0  0  0  0  0  0  0  0  0
  -16.3009  -38.1692   -6.7946 O   0  0  0  0  0  0  0  0  0  0  0  0
  -17.0301  -40.0889   -8.0440 C   0  0  2  0  0  0  0  0  0  0  0  0
  -18.3228  -40.0547   -7.3381 C   0  0  0  0  0  0  0  0  0  0  0  0
  -19.4613  -39.2026   -7.7825 C   0  0  0  0  0  0  0  0  0  0  0  0
  -20.2637  -38.8985   -6.6340 C   0  0  0  0  0  0  0  0  0  0  0  0
  -21.4264  -38.1967   -6.6843 C   0  0  0  0  0  0  0  0  0  0  0  0
  -21.7968  -37.7875   -7.9311 C   0  0  0  0  0  0  0  0  0  0  0  0
  -21.0415  -38.0586   -9.1119 C   0  0  0  0  0  0  0  0  0  0  0  0
  -21.7521  -37.4935  -10.2761 C   0  0  0  0  0  0  0  0  0  0  0  0
  -21.6574  -37.9377  -11.6531 C   0  0  0  0  0  0  0  0  0  0  0  0
  -21.5299  -39.4210  -11.8242 C   0  0  0  0  0  0  0  0  0  0  0  0
  -22.4275  -40.1581  -10.8833 C   0  0  0  0  0  0  0  0  0  0  0  0
  -22.0538  -41.5825  -10.7261 N   0  0  0  0  0  0  0  0  0  0  0  0
  -20.9879  -42.1677   -9.9864 C   0  0  0  0  0  0  0  0  0  0  0  0
  -21.5163  -43.1825   -9.1273 C   0  0  0  0  0  0  0  0  0  0  0  0
  -20.8006  -43.8879   -8.2730 N   0  0  0  0  0  0  0  0  0  0  0  0
  -19.4955  -43.6278   -8.2142 C   0  0  0  0  0  0  0  0  0  0  0  0
  -18.8734  -42.6411   -9.0243 C   0  0  0  0  0  0  0  0  0  0  0  0
  -19.6326  -41.9029   -9.9278 C   0  0  0  0  0  0  0  0  0  0  0  0
  -17.4413  -42.5525   -8.6606 C   0  0  0  0  0  0  0  0  0  0  0  0
  -16.8580  -43.7173   -8.5186 O   0  0  0  0  0  0  0  0  0  0  0  0
  -16.6082  -41.4258   -8.4406 N   0  0  0  0  0  0  0  0  0  0  0  0
  -19.8787  -38.7634   -9.0122 C   0  0  0  0  0  0  0  0  0  0  0  0
  -13.7090  -40.8034  -10.0696 C   0  0  0  0  0  0  0  0  0  0  0  0
  -14.3267  -41.6395  -10.9606 C   0  0  0  0  0  0  0  0  0  0  0  0
  -14.7366  -41.1567  -12.1947 C   0  0  0  0  0  0  0  0  0  0  0  0
  -14.5196  -39.8358  -12.5185 C   0  0  0  0  0  0  0  0  0  0  0  0
  -13.9004  -38.9887  -11.6326 C   0  0  0  0  0  0  0  0  0  0  0  0
  -13.6102  -37.1725  -12.0949 Br  0  0  0  0  0  0  0  0  0  0  0  0
  -13.4914  -39.4943  -10.3869 C   0  0  0  0  0  0  0  0  0  0  0  0
  1  2  1  0
  2  3  1  0
  2  4  1  0
  4  5  1  0
  5  6  1  0
  6  7  1  6
  6  8  1  0
  8  9  1  1
  9 10  1  0
 10 11  1  0
 11 12  2  0
 12 13  1  0
 13 14  2  0
 14 15  1  0
 15 16  1  0
 16 17  1  0
 17 18  1  0
 18 19  1  0
 19 20  1  0
 20 21  1  0
 21 22  2  0
 22 23  1  0
 23 24  2  0
 24 25  1  0
 24 26  1  0
 26 27  2  0
 26 28  1  0
 14 29  1  0
  2 30  1  0
 30 31  2  0
 31 32  1  0
 32 33  2  0
 33 34  1  0
 34 35  1  0
 34 36  2  0
 25 20  2  0
 28  8  1  0
 29 10  2  0
 36 30  1  0
M  END
$$$$
