
     RDKit          3D

 36 39  0  0  0  0  0  0  0  0999 V2000
  -12.3924  -39.8995   -9.0464 C   0  0  0  0  0  0  0  0  0  0  0  0
  -13.7381  -39.5539   -9.6574 C   0  0  0  0  0  0  0  0  0  0  0  0
  -13.6877  -38.2761  -10.4242 C   0  0  0  0  0  0  0  0  0  0  0  0
  -14.7927  -39.5675   -8.7026 N   0  0  0  0  0  0  0  0  0  0  0  0
  -15.6847  -38.4958   -8.6245 C   0  0  0  0  0  0  0  0  0  0  0  0
  -16.6735  -38.4483   -7.5137 C   0  0  1  0  0  0  0  0  0  0  0  0
  -17.2478  -37.2276   -7.2628 O   0  0  0  0  0  0  0  0  0  0  0  0
  -17.7771  -39.5246   -7.7337 C   0  0  2  0  0  0  0  0  0  0  0  0
  -18.5724  -39.7704   -6.5181 C   0  0  0  0  0  0  0  0  0  0  0  0
  -19.9921  -39.3392   -6.3832 C   0  0  0  0  0  0  0  0  0  0  0  0
  -20.2639  -39.1337   -4.9906 C   0  0  0  0  0  0  0  0  0  0  0  0
  -21.4857  -38.8029   -4.4960 C   0  0  0  0  0  0  0  0  0  0  0  0
  -22.4689  -38.6756   -5.4322 C   0  0  0  0  0  0  0  0  0  0  0  0
  -22.2613  -38.8670   -6.8317 C   0  0  0  0  0  0  0  0  0  0  0  0
  -23.5442  -38.6776   -7.5372 C   0  0  0  0  0  0  0  0  0  0  0  0
  -23.9267  -39.2459   -8.8153 C   0  0  0  0  0  0  0  0  0  0  0  0
  -23.4339  -40.6412   -9.0517 C   0  0  0  0  0  0  0  0  0  0  0  0
  -23.5540  -41.4786   -7.8193 C   0  0  0  0  0  0  0  0  0  0  0  0
  -22.7284  -42.7068   -7.8737 N   0  0  0  0  0  0  0  0  0  0  0  0
  -21.3240  -42.8678   -7.7078 C   0  0  0  0  0  0  0  0  0  0  0  0
  -21.0817  -43.8747   -6.7206 C   0  0  0  0  0  0  0  0  0  0  0  0
  -19.8860  -44.2349   -6.2960 N   0  0  0  0  0  0  0  0  0  0  0  0
  -18.8381  -43.6099   -6.8305 C   0  0  0  0  0  0  0  0  0  0  0  0
  -18.9712  -42.5969   -7.8170 C   0  0  0  0  0  0  0  0  0  0  0  0
  -20.2353  -42.2242   -8.2652 C   0  0  0  0  0  0  0  0  0  0  0  0
  -17.6301  -42.0607   -8.1403 C   0  0  0  0  0  0  0  0  0  0  0  0
  -16.7143  -42.9846   -8.2986 O   0  0  0  0  0  0  0  0  0  0  0  0
  -17.1792  -40.7255   -8.3019 N   0  0  0  0  0  0  0  0  0  0  0  0
  -21.0169  -39.1945   -7.2823 C   0  0  0  0  0  0  0  0  0  0  0  0
  -13.9810  -40.6706  -10.6647 C   0  0  0  0  0  0  0  0  0  0  0  0
  -13.0438  -40.9753  -11.6152 C   0  0  0  0  0  0  0  0  0  0  0  0
  -13.2943  -41.9796  -12.5387 C   0  0  0  0  0  0  0  0  0  0  0  0
  -14.4869  -42.6668  -12.4950 C   0  0  0  0  0  0  0  0  0  0  0  0
  -15.4341  -42.3690  -11.5463 C   0  0  0  0  0  0  0  0  0  0  0  0
  -17.0708  -43.3259  -11.5005 Br  0  0  0  0  0  0  0  0  0  0  0  0
  -15.1643  -41.3486  -10.6185 C   0  0  0  0  0  0  0  0  0  0  0  0
  1  2  1  0
  2  3  1  0
  2  4  1  0
  4  5  1  0
  5  6  1  0
  6  7  1  6
  6  8  1  0
  8  9  1  1
  9 10  1  0
 10 11  1  0
 11 12  2  0
 12 13  1  0
 13 14  2  0
 14 15  1  0
 15 16  1  0
 16 17  1  0
 17 18  1  0
 18 19  1  0
 19 20  1  0
 20 21  1  0
 21 22  2  0
 22 23  1  0
 23 24  2  0
 24 25  1  0
 24 26  1  0
 26 27  2  0
 26 28  1  0
 14 29  1  0
  2 30  1  0
 30 31  2  0
 31 32  1  0
 32 33  2  0
 33 34  1  0
 34 35  1  0
 34 36  2  0
 25 20  2  0
 28  8  1  0
 29 10  2  0
 36 30  1  0
M  END
$$$$
