
     RDKit          3D

 36 39  0  0  0  0  0  0  0  0999 V2000
  -12.5900  -37.4858  -10.2051 C   0  0  0  0  0  0  0  0  0  0  0  0
  -14.0437  -37.9220  -10.1969 C   0  0  0  0  0  0  0  0  0  0  0  0
  -14.8899  -37.0493  -11.0604 C   0  0  0  0  0  0  0  0  0  0  0  0
  -14.5696  -38.0499   -8.8812 N   0  0  0  0  0  0  0  0  0  0  0  0
  -15.8190  -37.5104   -8.5676 C   0  0  0  0  0  0  0  0  0  0  0  0
  -16.5950  -38.0775   -7.4317 C   0  0  1  0  0  0  0  0  0  0  0  0
  -17.3443  -37.1882   -6.7033 O   0  0  0  0  0  0  0  0  0  0  0  0
  -17.4896  -39.2513   -7.9283 C   0  0  2  0  0  0  0  0  0  0  0  0
  -18.3186  -39.8203   -6.8515 C   0  0  0  0  0  0  0  0  0  0  0  0
  -19.7956  -39.6354   -6.7885 C   0  0  0  0  0  0  0  0  0  0  0  0
  -20.1957  -39.7179   -5.4143 C   0  0  0  0  0  0  0  0  0  0  0  0
  -21.4873  -39.6637   -4.9948 C   0  0  0  0  0  0  0  0  0  0  0  0
  -22.4089  -39.5234   -5.9899 C   0  0  0  0  0  0  0  0  0  0  0  0
  -22.0736  -39.4356   -7.3749 C   0  0  0  0  0  0  0  0  0  0  0  0
  -23.3168  -39.3196   -8.1628 C   0  0  0  0  0  0  0  0  0  0  0  0
  -23.5094  -39.7076   -9.5467 C   0  0  0  0  0  0  0  0  0  0  0  0
  -22.7799  -40.9514   -9.9546 C   0  0  0  0  0  0  0  0  0  0  0  0
  -22.8491  -41.9987   -8.8902 C   0  0  0  0  0  0  0  0  0  0  0  0
  -21.8324  -43.0619   -9.0601 N   0  0  0  0  0  0  0  0  0  0  0  0
  -20.4360  -43.0384   -8.7858 C   0  0  0  0  0  0  0  0  0  0  0  0
  -20.1035  -44.1541   -7.9540 C   0  0  0  0  0  0  0  0  0  0  0  0
  -18.8984  -44.4005   -7.4780 N   0  0  0  0  0  0  0  0  0  0  0  0
  -17.9312  -43.5431   -7.8003 C   0  0  0  0  0  0  0  0  0  0  0  0
  -18.1572  -42.4054   -8.6197 C   0  0  0  0  0  0  0  0  0  0  0  0
  -19.4300  -42.1528   -9.1236 C   0  0  0  0  0  0  0  0  0  0  0  0
  -16.9020  -41.6275   -8.7202 C   0  0  0  0  0  0  0  0  0  0  0  0
  -15.8389  -42.3630   -8.9345 O   0  0  0  0  0  0  0  0  0  0  0  0
  -16.6648  -40.2326   -8.6207 N   0  0  0  0  0  0  0  0  0  0  0  0
  -20.7636  -39.4908   -7.7484 C   0  0  0  0  0  0  0  0  0  0  0  0
  -14.0164  -39.3006  -10.8446 C   0  0  0  0  0  0  0  0  0  0  0  0
  -14.8299  -39.5941  -11.9060 C   0  0  0  0  0  0  0  0  0  0  0  0
  -14.8077  -40.8628  -12.4664 C   0  0  0  0  0  0  0  0  0  0  0  0
  -13.9656  -41.8231  -11.9513 C   0  0  0  0  0  0  0  0  0  0  0  0
  -13.1460  -41.5397  -10.8865 C   0  0  0  0  0  0  0  0  0  0  0  0
  -11.9923  -42.8741  -10.1903 Br  0  0  0  0  0  0  0  0  0  0  0  0
  -13.1813  -40.2495  -10.3308 C   0  0  0  0  0  0  0  0  0  0  0  0
  1  2  1  0
  2  3  1  0
  2  4  1  0
  4  5  1  0
  5  6  1  0
  6  7  1  6
  6  8  1  0
  8  9  1  1
  9 10  1  0
 10 11  1  0
 11 12  2  0
 12 13  1  0
 13 14  2  0
 14 15  1  0
 15 16  1  0
 16 17  1  0
 17 18  1  0
 18 19  1  0
 19 20  1  0
 20 21  1  0
 21 22  2  0
 22 23  1  0
 23 24  2  0
 24 25  1  0
 24 26  1  0
 26 27  2  0
 26 28  1  0
 14 29  1  0
  2 30  1  0
 30 31  2  0
 31 32  1  0
 32 33  2  0
 33 34  1  0
 34 35  1  0
 34 36  2  0
 25 20  2  0
 28  8  1  0
 29 10  2  0
 36 30  1  0
M  END
$$$$
