
     RDKit          3D

 36 39  0  0  0  0  0  0  0  0999 V2000
  -13.4140  -39.4754  -10.5323 C   0  0  0  0  0  0  0  0  0  0  0  0
  -14.6676  -38.6390  -10.3527 C   0  0  0  0  0  0  0  0  0  0  0  0
  -14.4559  -37.2242  -10.7733 C   0  0  0  0  0  0  0  0  0  0  0  0
  -15.2068  -38.7353   -9.0397 N   0  0  0  0  0  0  0  0  0  0  0  0
  -16.5248  -38.3465   -8.7903 C   0  0  0  0  0  0  0  0  0  0  0  0
  -17.1476  -38.6757   -7.4797 C   0  0  1  0  0  0  0  0  0  0  0  0
  -17.7244  -37.6316   -6.8014 O   0  0  0  0  0  0  0  0  0  0  0  0
  -18.1728  -39.8350   -7.6509 C   0  0  2  0  0  0  0  0  0  0  0  0
  -18.8106  -40.2137   -6.3779 C   0  0  0  0  0  0  0  0  0  0  0  0
  -20.2394  -39.9206   -6.0741 C   0  0  0  0  0  0  0  0  0  0  0  0
  -20.3780  -39.8118   -4.6513 C   0  0  0  0  0  0  0  0  0  0  0  0
  -21.5640  -39.6189   -4.0164 C   0  0  0  0  0  0  0  0  0  0  0  0
  -22.6484  -39.5338   -4.8386 C   0  0  0  0  0  0  0  0  0  0  0  0
  -22.5752  -39.6341   -6.2610 C   0  0  0  0  0  0  0  0  0  0  0  0
  -23.9374  -39.5263   -6.8200 C   0  0  0  0  0  0  0  0  0  0  0  0
  -24.4039  -40.0610   -8.0846 C   0  0  0  0  0  0  0  0  0  0  0  0
  -23.8223  -41.3920   -8.4532 C   0  0  0  0  0  0  0  0  0  0  0  0
  -23.7390  -42.2985   -7.2676 C   0  0  0  0  0  0  0  0  0  0  0  0
  -22.8225  -43.4424   -7.4792 N   0  0  0  0  0  0  0  0  0  0  0  0
  -21.3999  -43.4834   -7.4665 C   0  0  0  0  0  0  0  0  0  0  0  0
  -20.9693  -44.5131   -6.5713 C   0  0  0  0  0  0  0  0  0  0  0  0
  -19.7090  -44.7845   -6.2926 N   0  0  0  0  0  0  0  0  0  0  0  0
  -18.7808  -44.0405   -6.8920 C   0  0  0  0  0  0  0  0  0  0  0  0
  -19.1036  -42.9949   -7.7973 C   0  0  0  0  0  0  0  0  0  0  0  0
  -20.4353  -42.7161   -8.0917 C   0  0  0  0  0  0  0  0  0  0  0  0
  -17.8549  -42.3233   -8.2221 C   0  0  0  0  0  0  0  0  0  0  0  0
  -16.8860  -43.1510   -8.5277 O   0  0  0  0  0  0  0  0  0  0  0  0
  -17.5389  -40.9463   -8.3480 N   0  0  0  0  0  0  0  0  0  0  0  0
  -21.3625  -39.8239   -6.8542 C   0  0  0  0  0  0  0  0  0  0  0  0
  -15.6609  -39.2525  -11.3313 C   0  0  0  0  0  0  0  0  0  0  0  0
  -15.5326  -40.5531  -11.7395 C   0  0  0  0  0  0  0  0  0  0  0  0
  -16.4334  -41.0861  -12.6499 C   0  0  0  0  0  0  0  0  0  0  0  0
  -17.4547  -40.3027  -13.1398 C   0  0  0  0  0  0  0  0  0  0  0  0
  -17.5923  -38.9968  -12.7376 C   0  0  0  0  0  0  0  0  0  0  0  0
  -19.0049  -37.9327  -13.4222 Br  0  0  0  0  0  0  0  0  0  0  0  0
  -16.6709  -38.4729  -11.8150 C   0  0  0  0  0  0  0  0  0  0  0  0
  1  2  1  0
  2  3  1  0
  2  4  1  0
  4  5  1  0
  5  6  1  0
  6  7  1  6
  6  8  1  0
  8  9  1  1
  9 10  1  0
 10 11  1  0
 11 12  2  0
 12 13  1  0
 13 14  2  0
 14 15  1  0
 15 16  1  0
 16 17  1  0
 17 18  1  0
 18 19  1  0
 19 20  1  0
 20 21  1  0
 21 22  2  0
 22 23  1  0
 23 24  2  0
 24 25  1  0
 24 26  1  0
 26 27  2  0
 26 28  1  0
 14 29  1  0
  2 30  1  0
 30 31  2  0
 31 32  1  0
 32 33  2  0
 33 34  1  0
 34 35  1  0
 34 36  2  0
 25 20  2  0
 28  8  1  0
 29 10  2  0
 36 30  1  0
M  END
$$$$
