
     RDKit          3D

 36 39  0  0  0  0  0  0  0  0999 V2000
  -17.7024  -37.0675   -7.8788 C   0  0  0  0  0  0  0  0  0  0  0  0
  -18.8948  -37.9599   -7.5866 C   0  0  0  0  0  0  0  0  0  0  0  0
  -19.6176  -37.5344   -6.3539 C   0  0  0  0  0  0  0  0  0  0  0  0
  -18.5521  -39.3405   -7.5603 N   0  0  0  0  0  0  0  0  0  0  0  0
  -17.2736  -39.7404   -7.1656 C   0  0  0  0  0  0  0  0  0  0  0  0
  -16.7089  -41.0100   -7.6978 C   0  0  1  0  0  0  0  0  0  0  0  0
  -15.6019  -41.5007   -7.0523 O   0  0  0  0  0  0  0  0  0  0  0  0
  -17.8175  -42.1015   -7.7654 C   0  0  2  0  0  0  0  0  0  0  0  0
  -17.6115  -43.0432   -8.8796 C   0  0  0  0  0  0  0  0  0  0  0  0
  -17.1978  -44.4593   -8.6717 C   0  0  0  0  0  0  0  0  0  0  0  0
  -16.4937  -44.8932   -9.8427 C   0  0  0  0  0  0  0  0  0  0  0  0
  -16.0336  -46.1587  -10.0268 C   0  0  0  0  0  0  0  0  0  0  0  0
  -16.2908  -47.0183   -9.0002 C   0  0  0  0  0  0  0  0  0  0  0  0
  -16.9861  -46.6469   -7.8098 C   0  0  0  0  0  0  0  0  0  0  0  0
  -17.1073  -47.8306   -6.9360 C   0  0  0  0  0  0  0  0  0  0  0  0
  -18.1218  -48.0675   -5.9273 C   0  0  0  0  0  0  0  0  0  0  0  0
  -19.4911  -47.5795   -6.2912 C   0  0  0  0  0  0  0  0  0  0  0  0
  -19.8099  -47.8657   -7.7232 C   0  0  0  0  0  0  0  0  0  0  0  0
  -20.9477  -47.0659   -8.2319 N   0  0  0  0  0  0  0  0  0  0  0  0
  -20.9988  -45.6957   -8.6136 C   0  0  0  0  0  0  0  0  0  0  0  0
  -21.5570  -45.5961   -9.9272 C   0  0  0  0  0  0  0  0  0  0  0  0
  -21.7015  -44.4686  -10.5961 N   0  0  0  0  0  0  0  0  0  0  0  0
  -21.2948  -43.3507   -9.9968 C   0  0  0  0  0  0  0  0  0  0  0  0
  -20.7279  -43.3418   -8.6947 C   0  0  0  0  0  0  0  0  0  0  0  0
  -20.5824  -44.5341   -7.9911 C   0  0  0  0  0  0  0  0  0  0  0  0
  -20.3170  -41.9602   -8.3580 C   0  0  0  0  0  0  0  0  0  0  0  0
  -21.2092  -41.0519   -8.6681 O   0  0  0  0  0  0  0  0  0  0  0  0
  -19.1280  -41.4649   -7.7641 N   0  0  0  0  0  0  0  0  0  0  0  0
  -17.4261  -45.3643   -7.6676 C   0  0  0  0  0  0  0  0  0  0  0  0
  -19.8326  -37.7151   -8.7619 C   0  0  0  0  0  0  0  0  0  0  0  0
  -21.1824  -37.9063   -8.6351 C   0  0  0  0  0  0  0  0  0  0  0  0
  -22.0170  -37.7015   -9.7240 C   0  0  0  0  0  0  0  0  0  0  0  0
  -21.4826  -37.3058  -10.9300 C   0  0  0  0  0  0  0  0  0  0  0  0
  -20.1302  -37.1117  -11.0685 C   0  0  0  0  0  0  0  0  0  0  0  0
  -19.4116  -36.5663  -12.7366 Br  0  0  0  0  0  0  0  0  0  0  0  0
  -19.2992  -37.3239   -9.9554 C   0  0  0  0  0  0  0  0  0  0  0  0
  1  2  1  0
  2  3  1  0
  2  4  1  0
  4  5  1  0
  5  6  1  0
  6  7  1  1
  6  8  1  0
  8  9  1  6
  9 10  1  0
 10 11  1  0
 11 12  2  0
 12 13  1  0
 13 14  2  0
 14 15  1  0
 15 16  1  0
 16 17  1  0
 17 18  1  0
 18 19  1  0
 19 20  1  0
 20 21  1  0
 21 22  2  0
 22 23  1  0
 23 24  2  0
 24 25  1  0
 24 26  1  0
 26 27  2  0
 26 28  1  0
 14 29  1  0
  2 30  1  0
 30 31  2  0
 31 32  1  0
 32 33  2  0
 33 34  1  0
 34 35  1  0
 34 36  2  0
 25 20  2  0
 28  8  1  0
 29 10  2  0
 36 30  1  0
M  END
$$$$
