
     RDKit          3D

 35 36  0  0  0  0  0  0  0  0999 V2000
  -21.3605  -39.6369   -3.2514 C   0  0  0  0  0  0  0  0  0  0  0  0
  -22.6383  -39.4232   -4.0741 C   0  0  0  0  0  0  0  0  0  0  0  0
  -23.5309  -40.5890   -3.7786 C   0  0  0  0  0  0  0  0  0  0  0  0
  -22.2587  -39.3209   -5.5033 C   0  0  0  0  0  0  0  0  0  0  0  0
  -21.2566  -40.1307   -6.0166 C   0  0  0  0  0  0  0  0  0  0  0  0
  -20.8555  -40.0837   -7.3340 C   0  0  0  0  0  0  0  0  0  0  0  0
  -19.7737  -40.9692   -7.8669 C   0  0  0  0  0  0  0  0  0  0  0  0
  -18.9513  -40.1678   -8.7100 N   0  0  0  0  0  0  0  0  0  0  0  0
  -17.5683  -40.0495   -8.2823 C   0  0  0  0  0  0  0  0  0  0  0  0
  -17.0519  -38.7020   -8.6464 C   0  0  1  0  0  0  0  0  0  0  0  0
  -17.1193  -37.8593   -7.5159 O   0  0  0  0  0  0  0  0  0  0  0  0
  -15.6593  -38.6711   -9.2169 C   0  0  2  0  0  0  0  0  0  0  0  0
  -15.1685  -37.2650   -9.4076 C   0  0  0  0  0  0  0  0  0  0  0  0
  -14.0535  -37.1593  -10.4423 C   0  0  2  0  0  0  0  0  0  0  0  0
  -12.8152  -36.7017   -9.7239 C   0  0  0  0  0  0  0  0  0  0  0  0
  -14.4477  -36.2608  -11.5744 C   0  0  0  0  0  0  0  0  0  0  0  0
  -13.2109  -35.5703  -12.2046 C   0  0  0  0  0  0  0  0  0  0  0  0
  -12.5752  -36.6062  -13.0818 C   0  0  0  0  0  0  0  0  0  0  0  0
  -11.4384  -37.2040  -13.1307 C   0  0  0  0  0  0  0  0  0  0  0  0
  -10.8344  -38.2493  -14.0387 C   0  0  0  0  0  0  0  0  0  0  0  0
  -11.4432  -39.5994  -14.0254 C   0  0  0  0  0  0  0  0  0  0  0  0
  -10.8250  -40.5561  -13.0568 C   0  0  0  0  0  0  0  0  0  0  0  0
  -11.6592  -40.7434  -11.8080 C   0  0  0  0  0  0  0  0  0  0  0  0
  -12.6105  -41.8718  -11.9510 C   0  0  0  0  0  0  0  0  0  0  0  0
  -12.6779  -42.4067  -13.1112 O   0  0  0  0  0  0  0  0  0  0  0  0
  -13.4325  -42.4006  -10.9473 N   0  0  0  0  0  0  0  0  0  0  0  0
  -13.5859  -43.8422  -10.8790 C   0  0  0  0  0  0  0  0  0  0  0  0
  -14.1498  -41.5720   -9.9606 C   0  0  1  0  0  0  0  0  0  0  0  0
  -13.2051  -40.8449   -9.0700 C   0  0  0  0  0  0  0  0  0  0  0  0
  -15.1807  -40.7524  -10.6145 C   0  0  0  0  0  0  0  0  0  0  0  0
  -15.8764  -41.3932  -11.4841 O   0  0  0  0  0  0  0  0  0  0  0  0
  -15.5002  -39.4096  -10.4269 N   0  0  0  0  0  0  0  0  0  0  0  0
  -21.4813  -39.1901   -8.1757 C   0  0  0  0  0  0  0  0  0  0  0  0
  -22.4807  -38.3693   -7.7036 C   0  0  0  0  0  0  0  0  0  0  0  0
  -22.8733  -38.4326   -6.3619 C   0  0  0  0  0  0  0  0  0  0  0  0
  1  2  1  0
  2  3  1  0
  2  4  1  0
  4  5  2  0
  5  6  1  0
  6  7  1  0
  7  8  1  0
  8  9  1  0
  9 10  1  0
 10 11  1  1
 10 12  1  0
 12 13  1  6
 13 14  1  0
 14 15  1  1
 14 16  1  0
 16 17  1  0
 17 18  1  0
 18 19  2  0
 19 20  1  0
 20 21  1  0
 21 22  1  0
 22 23  1  0
 23 24  1  0
 24 25  2  0
 24 26  1  0
 26 27  1  0
 26 28  1  0
 28 29  1  6
 28 30  1  0
 30 31  2  0
 30 32  1  0
  6 33  2  0
 33 34  1  0
 34 35  2  0
 32 12  1  0
 35  4  1  0
M  END
$$$$
