
     RDKit          3D

 35 36  0  0  0  0  0  0  0  0999 V2000
  -13.2233  -33.5960  -10.6501 C   0  0  0  0  0  0  0  0  0  0  0  0
  -14.7046  -33.7576  -11.0173 C   0  0  0  0  0  0  0  0  0  0  0  0
  -15.4879  -33.2780   -9.8343 C   0  0  0  0  0  0  0  0  0  0  0  0
  -14.9488  -35.1823  -11.3457 C   0  0  0  0  0  0  0  0  0  0  0  0
  -14.2075  -36.1763  -10.7246 C   0  0  0  0  0  0  0  0  0  0  0  0
  -14.3838  -37.5176  -10.9862 C   0  0  0  0  0  0  0  0  0  0  0  0
  -13.5742  -38.5734  -10.3017 C   0  0  0  0  0  0  0  0  0  0  0  0
  -14.1598  -38.7882   -9.0210 N   0  0  0  0  0  0  0  0  0  0  0  0
  -15.5990  -38.9839   -9.0314 C   0  0  0  0  0  0  0  0  0  0  0  0
  -15.9772  -39.9286   -7.9453 C   0  0  1  0  0  0  0  0  0  0  0  0
  -15.7218  -39.3236   -6.6957 O   0  0  0  0  0  0  0  0  0  0  0  0
  -17.3962  -40.4294   -7.9833 C   0  0  2  0  0  0  0  0  0  0  0  0
  -18.3844  -39.3097   -7.8282 C   0  0  0  0  0  0  0  0  0  0  0  0
  -19.7438  -39.7816   -7.3241 C   0  0  2  0  0  0  0  0  0  0  0  0
  -20.7441  -39.5182   -8.4146 C   0  0  0  0  0  0  0  0  0  0  0  0
  -20.0979  -39.1257   -6.0246 C   0  0  0  0  0  0  0  0  0  0  0  0
  -21.6334  -38.9868   -5.8617 C   0  0  0  0  0  0  0  0  0  0  0  0
  -22.1191  -40.3447   -5.4535 C   0  0  0  0  0  0  0  0  0  0  0  0
  -22.9174  -41.2258   -5.9418 C   0  0  0  0  0  0  0  0  0  0  0  0
  -23.3825  -42.5916   -5.4941 C   0  0  0  0  0  0  0  0  0  0  0  0
  -22.3708  -43.6715   -5.4337 C   0  0  0  0  0  0  0  0  0  0  0  0
  -22.2470  -44.4847   -6.6822 C   0  0  0  0  0  0  0  0  0  0  0  0
  -21.0317  -44.1120   -7.5037 C   0  0  0  0  0  0  0  0  0  0  0  0
  -19.8518  -44.9312   -7.1357 C   0  0  0  0  0  0  0  0  0  0  0  0
  -19.9956  -45.7018   -6.1247 O   0  0  0  0  0  0  0  0  0  0  0  0
  -18.6095  -44.9405   -7.7833 N   0  0  0  0  0  0  0  0  0  0  0  0
  -17.9447  -46.2174   -7.9673 C   0  0  0  0  0  0  0  0  0  0  0  0
  -17.9426  -43.7245   -8.2846 C   0  0  1  0  0  0  0  0  0  0  0  0
  -18.7234  -43.0866   -9.3790 C   0  0  0  0  0  0  0  0  0  0  0  0
  -17.5518  -42.8447   -7.1731 C   0  0  0  0  0  0  0  0  0  0  0  0
  -17.0117  -43.4662   -6.1868 O   0  0  0  0  0  0  0  0  0  0  0  0
  -17.6828  -41.4639   -7.0438 N   0  0  0  0  0  0  0  0  0  0  0  0
  -15.3411  -37.8830  -11.9074 C   0  0  0  0  0  0  0  0  0  0  0  0
  -16.0972  -36.9254  -12.5451 C   0  0  0  0  0  0  0  0  0  0  0  0
  -15.9026  -35.5683  -12.2652 C   0  0  0  0  0  0  0  0  0  0  0  0
  1  2  1  0
  2  3  1  0
  2  4  1  0
  4  5  2  0
  5  6  1  0
  6  7  1  0
  7  8  1  0
  8  9  1  0
  9 10  1  0
 10 11  1  1
 10 12  1  0
 12 13  1  1
 13 14  1  0
 14 15  1  6
 14 16  1  0
 16 17  1  0
 17 18  1  0
 18 19  2  0
 19 20  1  0
 20 21  1  0
 21 22  1  0
 22 23  1  0
 23 24  1  0
 24 25  2  0
 24 26  1  0
 26 27  1  0
 26 28  1  0
 28 29  1  6
 28 30  1  0
 30 31  2  0
 30 32  1  0
  6 33  2  0
 33 34  1  0
 34 35  2  0
 32 12  1  0
 35  4  1  0
M  END
$$$$
