
     RDKit          3D

 35 36  0  0  0  0  0  0  0  0999 V2000
  -20.4621  -37.9940   -6.6590 C   0  0  0  0  0  0  0  0  0  0  0  0
  -21.8674  -38.4451   -7.0796 C   0  0  0  0  0  0  0  0  0  0  0  0
  -22.7134  -38.3987   -5.8446 C   0  0  0  0  0  0  0  0  0  0  0  0
  -21.7627  -39.8009   -7.6698 C   0  0  0  0  0  0  0  0  0  0  0  0
  -20.5275  -40.2960   -8.0603 C   0  0  0  0  0  0  0  0  0  0  0  0
  -20.3623  -41.5458   -8.6164 C   0  0  0  0  0  0  0  0  0  0  0  0
  -19.0192  -42.0608   -9.0279 C   0  0  0  0  0  0  0  0  0  0  0  0
  -18.0673  -41.0469   -8.7191 N   0  0  0  0  0  0  0  0  0  0  0  0
  -17.9971  -39.9604   -9.6805 C   0  0  0  0  0  0  0  0  0  0  0  0
  -17.3274  -40.4399  -10.9201 C   0  0  1  0  0  0  0  0  0  0  0  0
  -18.2656  -40.4607  -11.9748 O   0  0  0  0  0  0  0  0  0  0  0  0
  -16.1091  -39.6638  -11.3434 C   0  0  2  0  0  0  0  0  0  0  0  0
  -16.0872  -39.4300  -12.8263 C   0  0  0  0  0  0  0  0  0  0  0  0
  -14.6873  -39.1559  -13.3648 C   0  0  2  0  0  0  0  0  0  0  0  0
  -14.6766  -37.7493  -13.8943 C   0  0  0  0  0  0  0  0  0  0  0  0
  -14.2899  -40.1765  -14.3869 C   0  0  0  0  0  0  0  0  0  0  0  0
  -13.3021  -39.5828  -15.4239 C   0  0  0  0  0  0  0  0  0  0  0  0
  -11.9676  -39.5617  -14.7420 C   0  0  0  0  0  0  0  0  0  0  0  0
  -11.1175  -38.6592  -14.4029 C   0  0  0  0  0  0  0  0  0  0  0  0
   -9.7742  -38.6816  -13.7122 C   0  0  0  0  0  0  0  0  0  0  0  0
   -9.7411  -39.1177  -12.2972 C   0  0  0  0  0  0  0  0  0  0  0  0
   -9.8688  -38.0129  -11.2979 C   0  0  0  0  0  0  0  0  0  0  0  0
  -11.2529  -37.9314  -10.6910 C   0  0  0  0  0  0  0  0  0  0  0  0
  -11.3555  -38.7427   -9.4541 C   0  0  0  0  0  0  0  0  0  0  0  0
  -10.3416  -39.4708   -9.1737 O   0  0  0  0  0  0  0  0  0  0  0  0
  -12.4450  -38.7864   -8.5745 N   0  0  0  0  0  0  0  0  0  0  0  0
  -12.1715  -38.8213   -7.1496 C   0  0  0  0  0  0  0  0  0  0  0  0
  -13.8511  -38.8008   -9.0188 C   0  0  1  0  0  0  0  0  0  0  0  0
  -14.2164  -37.5360   -9.7123 C   0  0  0  0  0  0  0  0  0  0  0  0
  -14.1606  -40.0446   -9.7395 C   0  0  0  0  0  0  0  0  0  0  0  0
  -13.6958  -41.1000   -9.1730 O   0  0  0  0  0  0  0  0  0  0  0  0
  -14.8706  -40.2333  -10.9230 N   0  0  0  0  0  0  0  0  0  0  0  0
  -21.4778  -42.3358   -8.7905 C   0  0  0  0  0  0  0  0  0  0  0  0
  -22.7214  -41.8796   -8.4154 C   0  0  0  0  0  0  0  0  0  0  0  0
  -22.8678  -40.6069   -7.8523 C   0  0  0  0  0  0  0  0  0  0  0  0
  1  2  1  0
  2  3  1  0
  2  4  1  0
  4  5  2  0
  5  6  1  0
  6  7  1  0
  7  8  1  0
  8  9  1  0
  9 10  1  0
 10 11  1  6
 10 12  1  0
 12 13  1  6
 13 14  1  0
 14 15  1  6
 14 16  1  0
 16 17  1  0
 17 18  1  0
 18 19  2  0
 19 20  1  0
 20 21  1  0
 21 22  1  0
 22 23  1  0
 23 24  1  0
 24 25  2  0
 24 26  1  0
 26 27  1  0
 26 28  1  0
 28 29  1  6
 28 30  1  0
 30 31  2  0
 30 32  1  0
  6 33  2  0
 33 34  1  0
 34 35  2  0
 32 12  1  0
 35  4  1  0
M  END
$$$$
