
     RDKit          3D

 35 36  0  0  0  0  0  0  0  0999 V2000
  -12.5001  -34.3951  -11.3873 C   0  0  0  0  0  0  0  0  0  0  0  0
  -13.8987  -34.9845  -11.6147 C   0  0  0  0  0  0  0  0  0  0  0  0
  -14.6820  -34.7067  -10.3688 C   0  0  0  0  0  0  0  0  0  0  0  0
  -13.7516  -36.4304  -11.9065 C   0  0  0  0  0  0  0  0  0  0  0  0
  -13.5766  -37.3348  -10.8698 C   0  0  0  0  0  0  0  0  0  0  0  0
  -13.4321  -38.6899  -11.0732 C   0  0  0  0  0  0  0  0  0  0  0  0
  -13.2472  -39.6480   -9.9391 C   0  0  0  0  0  0  0  0  0  0  0  0
  -14.1651  -39.2718   -8.9168 N   0  0  0  0  0  0  0  0  0  0  0  0
  -15.5158  -39.7769   -9.0911 C   0  0  0  0  0  0  0  0  0  0  0  0
  -16.3688  -39.3053   -7.9663 C   0  0  1  0  0  0  0  0  0  0  0  0
  -16.4048  -37.8941   -7.9726 O   0  0  0  0  0  0  0  0  0  0  0  0
  -17.7734  -39.8461   -7.9438 C   0  0  2  0  0  0  0  0  0  0  0  0
  -18.7478  -38.8382   -7.4063 C   0  0  0  0  0  0  0  0  0  0  0  0
  -20.0221  -39.4743   -6.8620 C   0  0  2  0  0  0  0  0  0  0  0  0
  -21.1611  -39.0094   -7.7255 C   0  0  0  0  0  0  0  0  0  0  0  0
  -20.2106  -39.1548   -5.4105 C   0  0  0  0  0  0  0  0  0  0  0  0
  -21.7129  -39.1260   -5.0288 C   0  0  0  0  0  0  0  0  0  0  0  0
  -22.1218  -40.5618   -4.8954 C   0  0  0  0  0  0  0  0  0  0  0  0
  -22.9653  -41.3398   -5.4744 C   0  0  0  0  0  0  0  0  0  0  0  0
  -23.3484  -42.7915   -5.3075 C   0  0  0  0  0  0  0  0  0  0  0  0
  -22.3228  -43.8099   -5.6309 C   0  0  0  0  0  0  0  0  0  0  0  0
  -22.3537  -44.3043   -7.0416 C   0  0  0  0  0  0  0  0  0  0  0  0
  -21.2627  -43.6972   -7.8971 C   0  0  0  0  0  0  0  0  0  0  0  0
  -20.0334  -44.5262   -7.8836 C   0  0  0  0  0  0  0  0  0  0  0  0
  -20.0318  -45.5163   -7.0734 O   0  0  0  0  0  0  0  0  0  0  0  0
  -18.8874  -44.3295   -8.6652 N   0  0  0  0  0  0  0  0  0  0  0  0
  -18.2351  -45.4978   -9.2273 C   0  0  0  0  0  0  0  0  0  0  0  0
  -18.3093  -43.0018   -8.9443 C   0  0  1  0  0  0  0  0  0  0  0  0
  -19.2365  -42.1624   -9.7505 C   0  0  0  0  0  0  0  0  0  0  0  0
  -17.7874  -42.3880   -7.7143 C   0  0  0  0  0  0  0  0  0  0  0  0
  -17.1133  -43.1971   -6.9782 O   0  0  0  0  0  0  0  0  0  0  0  0
  -17.9191  -41.0823   -7.2471 N   0  0  0  0  0  0  0  0  0  0  0  0
  -13.4635  -39.1631  -12.3670 C   0  0  0  0  0  0  0  0  0  0  0  0
  -13.6353  -38.2965  -13.4229 C   0  0  0  0  0  0  0  0  0  0  0  0
  -13.7803  -36.9235  -13.1949 C   0  0  0  0  0  0  0  0  0  0  0  0
  1  2  1  0
  2  3  1  0
  2  4  1  0
  4  5  2  0
  5  6  1  0
  6  7  1  0
  7  8  1  0
  8  9  1  0
  9 10  1  0
 10 11  1  6
 10 12  1  0
 12 13  1  1
 13 14  1  0
 14 15  1  6
 14 16  1  0
 16 17  1  0
 17 18  1  0
 18 19  2  0
 19 20  1  0
 20 21  1  0
 21 22  1  0
 22 23  1  0
 23 24  1  0
 24 25  2  0
 24 26  1  0
 26 27  1  0
 26 28  1  0
 28 29  1  1
 28 30  1  0
 30 31  2  0
 30 32  1  0
  6 33  2  0
 33 34  1  0
 34 35  2  0
 32 12  1  0
 35  4  1  0
M  END
$$$$
