
     RDKit          3D

 35 36  0  0  0  0  0  0  0  0999 V2000
  -11.7465  -35.7877  -12.0561 C   0  0  0  0  0  0  0  0  0  0  0  0
  -13.1498  -36.0128  -12.6352 C   0  0  0  0  0  0  0  0  0  0  0  0
  -14.0856  -35.1858  -11.8085 C   0  0  0  0  0  0  0  0  0  0  0  0
  -13.4460  -37.4643  -12.5835 C   0  0  0  0  0  0  0  0  0  0  0  0
  -13.1742  -38.1892  -11.4329 C   0  0  0  0  0  0  0  0  0  0  0  0
  -13.4239  -39.5396  -11.3208 C   0  0  0  0  0  0  0  0  0  0  0  0
  -13.1252  -40.3013  -10.0681 C   0  0  0  0  0  0  0  0  0  0  0  0
  -13.8516  -39.6776   -9.0133 N   0  0  0  0  0  0  0  0  0  0  0  0
  -15.1501  -40.2653   -8.7337 C   0  0  0  0  0  0  0  0  0  0  0  0
  -16.0322  -39.2413   -8.1105 C   0  0  1  0  0  0  0  0  0  0  0  0
  -15.9363  -38.0392   -8.8442 O   0  0  0  0  0  0  0  0  0  0  0  0
  -17.4792  -39.6303   -7.9656 C   0  0  2  0  0  0  0  0  0  0  0  0
  -18.3261  -38.4678   -7.5350 C   0  0  0  0  0  0  0  0  0  0  0  0
  -19.6274  -38.8956   -6.8651 C   0  0  2  0  0  0  0  0  0  0  0  0
  -20.7574  -38.4353   -7.7427 C   0  0  0  0  0  0  0  0  0  0  0  0
  -19.7141  -38.3716   -5.4643 C   0  0  0  0  0  0  0  0  0  0  0  0
  -21.1866  -38.1419   -5.0371 C   0  0  0  0  0  0  0  0  0  0  0  0
  -21.7232  -39.4994   -4.6969 C   0  0  0  0  0  0  0  0  0  0  0  0
  -22.6640  -40.2575   -5.1353 C   0  0  0  0  0  0  0  0  0  0  0  0
  -23.1748  -41.6289   -4.7606 C   0  0  0  0  0  0  0  0  0  0  0  0
  -22.2676  -42.7789   -4.9796 C   0  0  0  0  0  0  0  0  0  0  0  0
  -22.4136  -43.4480   -6.3087 C   0  0  0  0  0  0  0  0  0  0  0  0
  -21.3126  -43.0711   -7.2763 C   0  0  0  0  0  0  0  0  0  0  0  0
  -20.1685  -44.0107   -7.1945 C   0  0  0  0  0  0  0  0  0  0  0  0
  -20.2219  -44.8813   -6.2586 O   0  0  0  0  0  0  0  0  0  0  0  0
  -19.0482  -44.0344   -8.0355 N   0  0  0  0  0  0  0  0  0  0  0  0
  -18.5380  -45.3258   -8.4574 C   0  0  0  0  0  0  0  0  0  0  0  0
  -18.3607  -42.8196   -8.5115 C   0  0  1  0  0  0  0  0  0  0  0  0
  -19.2417  -42.0038   -9.3904 C   0  0  0  0  0  0  0  0  0  0  0  0
  -17.7237  -42.1059   -7.3947 C   0  0  0  0  0  0  0  0  0  0  0  0
  -17.0948  -42.8755   -6.5804 O   0  0  0  0  0  0  0  0  0  0  0  0
  -17.7080  -40.7438   -7.1037 N   0  0  0  0  0  0  0  0  0  0  0  0
  -13.9684  -40.1952  -12.4036 C   0  0  0  0  0  0  0  0  0  0  0  0
  -14.2523  -39.5101  -13.5635 C   0  0  0  0  0  0  0  0  0  0  0  0
  -13.9911  -38.1385  -13.6570 C   0  0  0  0  0  0  0  0  0  0  0  0
  1  2  1  0
  2  3  1  0
  2  4  1  0
  4  5  2  0
  5  6  1  0
  6  7  1  0
  7  8  1  0
  8  9  1  0
  9 10  1  0
 10 11  1  6
 10 12  1  0
 12 13  1  1
 13 14  1  0
 14 15  1  6
 14 16  1  0
 16 17  1  0
 17 18  1  0
 18 19  2  0
 19 20  1  0
 20 21  1  0
 21 22  1  0
 22 23  1  0
 23 24  1  0
 24 25  2  0
 24 26  1  0
 26 27  1  0
 26 28  1  0
 28 29  1  1
 28 30  1  0
 30 31  2  0
 30 32  1  0
  6 33  2  0
 33 34  1  0
 34 35  2  0
 32 12  1  0
 35  4  1  0
M  END
$$$$
