
     RDKit          3D

 35 36  0  0  0  0  0  0  0  0999 V2000
  -22.1750  -40.0453   -4.2421 C   0  0  0  0  0  0  0  0  0  0  0  0
  -22.2243  -40.9423   -5.4864 C   0  0  0  0  0  0  0  0  0  0  0  0
  -21.2830  -42.0779   -5.2261 C   0  0  0  0  0  0  0  0  0  0  0  0
  -21.8474  -40.1244   -6.6637 C   0  0  0  0  0  0  0  0  0  0  0  0
  -20.6575  -39.4121   -6.6637 C   0  0  0  0  0  0  0  0  0  0  0  0
  -20.2501  -38.6325   -7.7243 C   0  0  0  0  0  0  0  0  0  0  0  0
  -18.9603  -37.8746   -7.7036 C   0  0  0  0  0  0  0  0  0  0  0  0
  -18.0081  -38.6834   -7.0192 N   0  0  0  0  0  0  0  0  0  0  0  0
  -17.0627  -39.3748   -7.8782 C   0  0  0  0  0  0  0  0  0  0  0  0
  -15.7967  -38.5954   -7.9479 C   0  0  1  0  0  0  0  0  0  0  0  0
  -15.2796  -38.4345   -6.6443 O   0  0  0  0  0  0  0  0  0  0  0  0
  -14.7315  -39.1635   -8.8471 C   0  0  2  0  0  0  0  0  0  0  0  0
  -13.6219  -38.1800   -9.0834 C   0  0  0  0  0  0  0  0  0  0  0  0
  -12.8353  -38.4656  -10.3579 C   0  0  2  0  0  0  0  0  0  0  0  0
  -11.4320  -38.8180   -9.9508 C   0  0  0  0  0  0  0  0  0  0  0  0
  -12.9036  -37.3094  -11.3081 C   0  0  0  0  0  0  0  0  0  0  0  0
  -11.6329  -37.2290  -12.1925 C   0  0  0  0  0  0  0  0  0  0  0  0
  -11.8136  -38.2734  -13.2523 C   0  0  0  0  0  0  0  0  0  0  0  0
  -11.1927  -39.3389  -13.6149 C   0  0  0  0  0  0  0  0  0  0  0  0
  -11.4105  -40.3702  -14.6970 C   0  0  0  0  0  0  0  0  0  0  0  0
  -12.6220  -41.2165  -14.5998 C   0  0  0  0  0  0  0  0  0  0  0  0
  -12.4289  -42.5053  -13.8669 C   0  0  0  0  0  0  0  0  0  0  0  0
  -12.9851  -42.4660  -12.4599 C   0  0  0  0  0  0  0  0  0  0  0  0
  -14.3940  -42.9263  -12.4166 C   0  0  0  0  0  0  0  0  0  0  0  0
  -14.9487  -43.1459  -13.5483 O   0  0  0  0  0  0  0  0  0  0  0  0
  -15.1654  -43.1407  -11.2669 N   0  0  0  0  0  0  0  0  0  0  0  0
  -16.0365  -44.3011  -11.2354 C   0  0  0  0  0  0  0  0  0  0  0  0
  -15.1406  -42.2508  -10.0912 C   0  0  1  0  0  0  0  0  0  0  0  0
  -13.8073  -42.2580   -9.4304 C   0  0  0  0  0  0  0  0  0  0  0  0
  -15.6892  -40.9276  -10.4234 C   0  0  0  0  0  0  0  0  0  0  0  0
  -16.7665  -40.9748  -11.1220 O   0  0  0  0  0  0  0  0  0  0  0  0
  -15.2144  -39.6601  -10.0941 N   0  0  0  0  0  0  0  0  0  0  0  0
  -21.0654  -38.5603   -8.8328 C   0  0  0  0  0  0  0  0  0  0  0  0
  -22.2546  -39.2529   -8.8707 C   0  0  0  0  0  0  0  0  0  0  0  0
  -22.6501  -40.0394   -7.7829 C   0  0  0  0  0  0  0  0  0  0  0  0
  1  2  1  0
  2  3  1  0
  2  4  1  0
  4  5  2  0
  5  6  1  0
  6  7  1  0
  7  8  1  0
  8  9  1  0
  9 10  1  0
 10 11  1  1
 10 12  1  0
 12 13  1  6
 13 14  1  0
 14 15  1  1
 14 16  1  0
 16 17  1  0
 17 18  1  0
 18 19  2  0
 19 20  1  0
 20 21  1  0
 21 22  1  0
 22 23  1  0
 23 24  1  0
 24 25  2  0
 24 26  1  0
 26 27  1  0
 26 28  1  0
 28 29  1  6
 28 30  1  0
 30 31  2  0
 30 32  1  0
  6 33  2  0
 33 34  1  0
 34 35  2  0
 32 12  1  0
 35  4  1  0
M  END
$$$$
