
     RDKit          3D

 35 36  0  0  0  0  0  0  0  0999 V2000
  -13.3790  -36.8391  -15.7790 C   0  0  0  0  0  0  0  0  0  0  0  0
  -12.7721  -35.9696  -14.6696 C   0  0  0  0  0  0  0  0  0  0  0  0
  -11.3130  -36.3039  -14.6214 C   0  0  0  0  0  0  0  0  0  0  0  0
  -13.4853  -36.2663  -13.4044 C   0  0  0  0  0  0  0  0  0  0  0  0
  -13.0686  -37.3172  -12.6010 C   0  0  0  0  0  0  0  0  0  0  0  0
  -13.6886  -37.6463  -11.4153 C   0  0  0  0  0  0  0  0  0  0  0  0
  -13.2199  -38.7829  -10.5628 C   0  0  0  0  0  0  0  0  0  0  0  0
  -13.9696  -38.7378   -9.3523 N   0  0  0  0  0  0  0  0  0  0  0  0
  -15.3699  -39.0996   -9.4862 C   0  0  0  0  0  0  0  0  0  0  0  0
  -15.8747  -39.6119   -8.1832 C   0  0  1  0  0  0  0  0  0  0  0  0
  -15.6660  -38.6323   -7.1883 O   0  0  0  0  0  0  0  0  0  0  0  0
  -17.3158  -40.0466   -8.1692 C   0  0  2  0  0  0  0  0  0  0  0  0
  -18.2483  -38.8747   -8.0623 C   0  0  0  0  0  0  0  0  0  0  0  0
  -19.6181  -39.2529   -7.5098 C   0  0  2  0  0  0  0  0  0  0  0  0
  -20.6258  -39.0046   -8.5970 C   0  0  0  0  0  0  0  0  0  0  0  0
  -19.9168  -38.5088   -6.2443 C   0  0  0  0  0  0  0  0  0  0  0  0
  -21.4409  -38.2888   -6.0646 C   0  0  0  0  0  0  0  0  0  0  0  0
  -21.9808  -39.5972   -5.5714 C   0  0  0  0  0  0  0  0  0  0  0  0
  -22.8280  -40.4658   -5.9954 C   0  0  0  0  0  0  0  0  0  0  0  0
  -23.3470  -41.7807   -5.4627 C   0  0  0  0  0  0  0  0  0  0  0  0
  -22.3851  -42.9020   -5.3571 C   0  0  0  0  0  0  0  0  0  0  0  0
  -22.3227  -43.7892   -6.5589 C   0  0  0  0  0  0  0  0  0  0  0  0
  -21.1073  -43.5211   -7.4202 C   0  0  0  0  0  0  0  0  0  0  0  0
  -19.9596  -44.3729   -7.0253 C   0  0  0  0  0  0  0  0  0  0  0  0
  -20.1195  -45.0776   -5.9696 O   0  0  0  0  0  0  0  0  0  0  0  0
  -18.7316  -44.4772   -7.6916 N   0  0  0  0  0  0  0  0  0  0  0  0
  -18.1299  -45.7923   -7.8131 C   0  0  0  0  0  0  0  0  0  0  0  0
  -18.0191  -43.3241   -8.2725 C   0  0  1  0  0  0  0  0  0  0  0  0
  -18.7904  -42.7129   -9.3887 C   0  0  0  0  0  0  0  0  0  0  0  0
  -17.5671  -42.4024   -7.2197 C   0  0  0  0  0  0  0  0  0  0  0  0
  -17.0375  -42.9920   -6.2084 O   0  0  0  0  0  0  0  0  0  0  0  0
  -17.6318  -41.0119   -7.1675 N   0  0  0  0  0  0  0  0  0  0  0  0
  -14.7713  -36.8944  -11.0139 C   0  0  0  0  0  0  0  0  0  0  0  0
  -15.2150  -35.8432  -11.7843 C   0  0  0  0  0  0  0  0  0  0  0  0
  -14.5713  -35.5253  -12.9854 C   0  0  0  0  0  0  0  0  0  0  0  0
  1  2  1  0
  2  3  1  0
  2  4  1  0
  4  5  2  0
  5  6  1  0
  6  7  1  0
  7  8  1  0
  8  9  1  0
  9 10  1  0
 10 11  1  1
 10 12  1  0
 12 13  1  1
 13 14  1  0
 14 15  1  6
 14 16  1  0
 16 17  1  0
 17 18  1  0
 18 19  2  0
 19 20  1  0
 20 21  1  0
 21 22  1  0
 22 23  1  0
 23 24  1  0
 24 25  2  0
 24 26  1  0
 26 27  1  0
 26 28  1  0
 28 29  1  6
 28 30  1  0
 30 31  2  0
 30 32  1  0
  6 33  2  0
 33 34  1  0
 34 35  2  0
 32 12  1  0
 35  4  1  0
M  END
$$$$
