
     RDKit          3D

 35 36  0  0  0  0  0  0  0  0999 V2000
  -22.0042  -37.5892   -9.1981 C   0  0  0  0  0  0  0  0  0  0  0  0
  -21.3207  -38.9215   -9.5343 C   0  0  0  0  0  0  0  0  0  0  0  0
  -22.2797  -39.6823  -10.3972 C   0  0  0  0  0  0  0  0  0  0  0  0
  -20.9988  -39.6122   -8.2629 C   0  0  0  0  0  0  0  0  0  0  0  0
  -19.8829  -39.2360   -7.5302 C   0  0  0  0  0  0  0  0  0  0  0  0
  -19.5275  -39.8382   -6.3429 C   0  0  0  0  0  0  0  0  0  0  0  0
  -18.3204  -39.4139   -5.5674 C   0  0  0  0  0  0  0  0  0  0  0  0
  -17.5941  -38.5016   -6.3855 N   0  0  0  0  0  0  0  0  0  0  0  0
  -16.7860  -39.1194   -7.4223 C   0  0  0  0  0  0  0  0  0  0  0  0
  -15.4588  -38.4484   -7.4800 C   0  0  1  0  0  0  0  0  0  0  0  0
  -14.7629  -38.6943   -6.2767 O   0  0  0  0  0  0  0  0  0  0  0  0
  -14.5904  -38.8234   -8.6510 C   0  0  2  0  0  0  0  0  0  0  0  0
  -13.3746  -37.9474   -8.7437 C   0  0  0  0  0  0  0  0  0  0  0  0
  -12.7758  -37.9072  -10.1454 C   0  0  2  0  0  0  0  0  0  0  0  0
  -11.4080  -38.5253  -10.0680 C   0  0  0  0  0  0  0  0  0  0  0  0
  -12.7652  -36.5119  -10.6908 C   0  0  0  0  0  0  0  0  0  0  0  0
  -11.5948  -36.3032  -11.6859 C   0  0  0  0  0  0  0  0  0  0  0  0
  -12.0401  -36.9364  -12.9693 C   0  0  0  0  0  0  0  0  0  0  0  0
  -11.6289  -37.8980  -13.7165 C   0  0  0  0  0  0  0  0  0  0  0  0
  -12.1110  -38.5077  -15.0118 C   0  0  0  0  0  0  0  0  0  0  0  0
  -13.4205  -39.1994  -14.9952 C   0  0  0  0  0  0  0  0  0  0  0  0
  -13.3509  -40.6659  -14.7122 C   0  0  0  0  0  0  0  0  0  0  0  0
  -13.7470  -41.0059  -13.2916 C   0  0  0  0  0  0  0  0  0  0  0  0
  -15.1974  -41.2943  -13.1832 C   0  0  0  0  0  0  0  0  0  0  0  0
  -15.8924  -41.0849  -14.2367 O   0  0  0  0  0  0  0  0  0  0  0  0
  -15.8699  -41.7688  -12.0495 N   0  0  0  0  0  0  0  0  0  0  0  0
  -16.8993  -42.7747  -12.2370 C   0  0  0  0  0  0  0  0  0  0  0  0
  -15.5895  -41.3000  -10.6798 C   0  0  1  0  0  0  0  0  0  0  0  0
  -14.2119  -41.6639  -10.2506 C   0  0  0  0  0  0  0  0  0  0  0  0
  -15.9619  -39.8862  -10.5229 C   0  0  0  0  0  0  0  0  0  0  0  0
  -17.1000  -39.5905  -11.0408 O   0  0  0  0  0  0  0  0  0  0  0  0
  -15.2689  -38.8474   -9.9057 N   0  0  0  0  0  0  0  0  0  0  0  0
  -20.3196  -40.8599   -5.8660 C   0  0  0  0  0  0  0  0  0  0  0  0
  -21.4356  -41.2619   -6.5648 C   0  0  0  0  0  0  0  0  0  0  0  0
  -21.7793  -40.6372   -7.7689 C   0  0  0  0  0  0  0  0  0  0  0  0
  1  2  1  0
  2  3  1  0
  2  4  1  0
  4  5  2  0
  5  6  1  0
  6  7  1  0
  7  8  1  0
  8  9  1  0
  9 10  1  0
 10 11  1  1
 10 12  1  0
 12 13  1  6
 13 14  1  0
 14 15  1  1
 14 16  1  0
 16 17  1  0
 17 18  1  0
 18 19  2  0
 19 20  1  0
 20 21  1  0
 21 22  1  0
 22 23  1  0
 23 24  1  0
 24 25  2  0
 24 26  1  0
 26 27  1  0
 26 28  1  0
 28 29  1  6
 28 30  1  0
 30 31  2  0
 30 32  1  0
  6 33  2  0
 33 34  1  0
 34 35  2  0
 32 12  1  0
 35  4  1  0
M  END
$$$$
