
     RDKit          3D

 35 36  0  0  0  0  0  0  0  0999 V2000
  -15.0950  -34.7317  -10.1970 C   0  0  0  0  0  0  0  0  0  0  0  0
  -14.7881  -34.6042  -11.6953 C   0  0  0  0  0  0  0  0  0  0  0  0
  -16.1073  -34.4351  -12.3839 C   0  0  0  0  0  0  0  0  0  0  0  0
  -14.0527  -35.8178  -12.1236 C   0  0  0  0  0  0  0  0  0  0  0  0
  -13.9943  -36.9257  -11.2914 C   0  0  0  0  0  0  0  0  0  0  0  0
  -13.3266  -38.0828  -11.6288 C   0  0  0  0  0  0  0  0  0  0  0  0
  -13.2792  -39.2674  -10.7162 C   0  0  0  0  0  0  0  0  0  0  0  0
  -14.1125  -38.9716   -9.5994 N   0  0  0  0  0  0  0  0  0  0  0  0
  -15.4605  -39.5059   -9.6833 C   0  0  0  0  0  0  0  0  0  0  0  0
  -16.0897  -39.4740   -8.3349 C   0  0  1  0  0  0  0  0  0  0  0  0
  -16.0101  -38.1629   -7.8177 O   0  0  0  0  0  0  0  0  0  0  0  0
  -17.5140  -39.9567   -8.2698 C   0  0  2  0  0  0  0  0  0  0  0  0
  -18.4824  -38.8152   -8.1552 C   0  0  0  0  0  0  0  0  0  0  0  0
  -19.8216  -39.2291   -7.5550 C   0  0  2  0  0  0  0  0  0  0  0  0
  -20.8689  -39.0350   -8.6155 C   0  0  0  0  0  0  0  0  0  0  0  0
  -20.1080  -38.4724   -6.2942 C   0  0  0  0  0  0  0  0  0  0  0  0
  -21.6328  -38.3007   -6.0723 C   0  0  0  0  0  0  0  0  0  0  0  0
  -22.1127  -39.6173   -5.5404 C   0  0  0  0  0  0  0  0  0  0  0  0
  -22.9418  -40.5216   -5.9235 C   0  0  0  0  0  0  0  0  0  0  0  0
  -23.3993  -41.8433   -5.3526 C   0  0  0  0  0  0  0  0  0  0  0  0
  -22.3969  -42.9293   -5.2567 C   0  0  0  0  0  0  0  0  0  0  0  0
  -22.3398  -43.8359   -6.4443 C   0  0  0  0  0  0  0  0  0  0  0  0
  -21.1604  -43.5428   -7.3464 C   0  0  0  0  0  0  0  0  0  0  0  0
  -19.9729  -44.3480   -6.9717 C   0  0  0  0  0  0  0  0  0  0  0  0
  -20.0773  -45.0381   -5.8996 O   0  0  0  0  0  0  0  0  0  0  0  0
  -18.7624  -44.4230   -7.6729 N   0  0  0  0  0  0  0  0  0  0  0  0
  -18.1198  -45.7191   -7.7896 C   0  0  0  0  0  0  0  0  0  0  0  0
  -18.1073  -43.2574   -8.2950 C   0  0  1  0  0  0  0  0  0  0  0  0
  -18.9317  -42.6932   -9.3978 C   0  0  0  0  0  0  0  0  0  0  0  0
  -17.6561  -42.3018   -7.2725 C   0  0  0  0  0  0  0  0  0  0  0  0
  -17.0770  -42.8545   -6.2675 O   0  0  0  0  0  0  0  0  0  0  0  0
  -17.7669  -40.9135   -7.2425 N   0  0  0  0  0  0  0  0  0  0  0  0
  -12.6893  -38.1368  -12.8494 C   0  0  0  0  0  0  0  0  0  0  0  0
  -12.7245  -37.0574  -13.7032 C   0  0  0  0  0  0  0  0  0  0  0  0
  -13.4083  -35.8913  -13.3416 C   0  0  0  0  0  0  0  0  0  0  0  0
  1  2  1  0
  2  3  1  0
  2  4  1  0
  4  5  2  0
  5  6  1  0
  6  7  1  0
  7  8  1  0
  8  9  1  0
  9 10  1  0
 10 11  1  6
 10 12  1  0
 12 13  1  1
 13 14  1  0
 14 15  1  6
 14 16  1  0
 16 17  1  0
 17 18  1  0
 18 19  2  0
 19 20  1  0
 20 21  1  0
 21 22  1  0
 22 23  1  0
 23 24  1  0
 24 25  2  0
 24 26  1  0
 26 27  1  0
 26 28  1  0
 28 29  1  6
 28 30  1  0
 30 31  2  0
 30 32  1  0
  6 33  2  0
 33 34  1  0
 34 35  2  0
 32 12  1  0
 35  4  1  0
M  END
$$$$
