
     RDKit          3D

 35 36  0  0  0  0  0  0  0  0999 V2000
  -13.1557  -40.0755  -13.4486 C   0  0  0  0  0  0  0  0  0  0  0  0
  -13.3130  -38.6712  -14.0473 C   0  0  0  0  0  0  0  0  0  0  0  0
  -12.2773  -38.5520  -15.1227 C   0  0  0  0  0  0  0  0  0  0  0  0
  -13.1456  -37.6803  -12.9576 C   0  0  0  0  0  0  0  0  0  0  0  0
  -13.5576  -37.9869  -11.6694 C   0  0  0  0  0  0  0  0  0  0  0  0
  -13.4321  -37.1107  -10.6134 C   0  0  0  0  0  0  0  0  0  0  0  0
  -13.8811  -37.4640   -9.2306 C   0  0  0  0  0  0  0  0  0  0  0  0
  -13.6327  -38.8551   -9.0502 N   0  0  0  0  0  0  0  0  0  0  0  0
  -14.8179  -39.6946   -9.0602 C   0  0  0  0  0  0  0  0  0  0  0  0
  -15.8680  -39.0772   -8.2050 C   0  0  1  0  0  0  0  0  0  0  0  0
  -16.0265  -37.7232   -8.5713 O   0  0  0  0  0  0  0  0  0  0  0  0
  -17.2071  -39.7646   -8.2207 C   0  0  2  0  0  0  0  0  0  0  0  0
  -18.3279  -38.8031   -7.9493 C   0  0  0  0  0  0  0  0  0  0  0  0
  -19.5853  -39.4879   -7.4250 C   0  0  2  0  0  0  0  0  0  0  0  0
  -20.6641  -39.2961   -8.4537 C   0  0  0  0  0  0  0  0  0  0  0  0
  -19.9601  -38.9700   -6.0701 C   0  0  0  0  0  0  0  0  0  0  0  0
  -21.4905  -39.0537   -5.8368 C   0  0  0  0  0  0  0  0  0  0  0  0
  -21.7689  -40.4884   -5.5042 C   0  0  0  0  0  0  0  0  0  0  0  0
  -22.4646  -41.4381   -6.0200 C   0  0  0  0  0  0  0  0  0  0  0  0
  -22.7196  -42.8803   -5.6495 C   0  0  0  0  0  0  0  0  0  0  0  0
  -21.5704  -43.8128   -5.7044 C   0  0  0  0  0  0  0  0  0  0  0  0
  -21.3999  -44.5210   -7.0101 C   0  0  0  0  0  0  0  0  0  0  0  0
  -20.2873  -43.9341   -7.8518 C   0  0  0  0  0  0  0  0  0  0  0  0
  -18.9915  -44.6051   -7.5888 C   0  0  0  0  0  0  0  0  0  0  0  0
  -18.9808  -45.4503   -6.6285 O   0  0  0  0  0  0  0  0  0  0  0  0
  -17.7925  -44.4030   -8.2847 N   0  0  0  0  0  0  0  0  0  0  0  0
  -16.9720  -45.5625   -8.5829 C   0  0  0  0  0  0  0  0  0  0  0  0
  -17.3203  -43.0778   -8.7270 C   0  0  1  0  0  0  0  0  0  0  0  0
  -18.2324  -42.4854   -9.7426 C   0  0  0  0  0  0  0  0  0  0  0  0
  -16.9971  -42.2246   -7.5739 C   0  0  0  0  0  0  0  0  0  0  0  0
  -16.3307  -42.8270   -6.6552 O   0  0  0  0  0  0  0  0  0  0  0  0
  -17.3058  -40.8858   -7.3443 N   0  0  0  0  0  0  0  0  0  0  0  0
  -12.8712  -35.8751  -10.8531 C   0  0  0  0  0  0  0  0  0  0  0  0
  -12.4500  -35.5337  -12.1185 C   0  0  0  0  0  0  0  0  0  0  0  0
  -12.5864  -36.4381  -13.1776 C   0  0  0  0  0  0  0  0  0  0  0  0
  1  2  1  0
  2  3  1  0
  2  4  1  0
  4  5  2  0
  5  6  1  0
  6  7  1  0
  7  8  1  0
  8  9  1  0
  9 10  1  0
 10 11  1  6
 10 12  1  0
 12 13  1  1
 13 14  1  0
 14 15  1  6
 14 16  1  0
 16 17  1  0
 17 18  1  0
 18 19  2  0
 19 20  1  0
 20 21  1  0
 21 22  1  0
 22 23  1  0
 23 24  1  0
 24 25  2  0
 24 26  1  0
 26 27  1  0
 26 28  1  0
 28 29  1  1
 28 30  1  0
 30 31  2  0
 30 32  1  0
  6 33  2  0
 33 34  1  0
 34 35  2  0
 32 12  1  0
 35  4  1  0
M  END
$$$$
