
     RDKit          3D

 35 36  0  0  0  0  0  0  0  0999 V2000
  -23.8505  -38.6806   -5.7730 C   0  0  0  0  0  0  0  0  0  0  0  0
  -22.3798  -38.6719   -5.3344 C   0  0  0  0  0  0  0  0  0  0  0  0
  -21.8316  -37.3329   -5.7213 C   0  0  0  0  0  0  0  0  0  0  0  0
  -21.6904  -39.8036   -5.9986 C   0  0  0  0  0  0  0  0  0  0  0  0
  -21.1454  -39.6404   -7.2634 C   0  0  0  0  0  0  0  0  0  0  0  0
  -20.4942  -40.6516   -7.9356 C   0  0  0  0  0  0  0  0  0  0  0  0
  -19.9111  -40.4521   -9.2990 C   0  0  0  0  0  0  0  0  0  0  0  0
  -18.4938  -40.4726   -9.1574 N   0  0  0  0  0  0  0  0  0  0  0  0
  -18.0130  -40.3294   -7.7943 C   0  0  0  0  0  0  0  0  0  0  0  0
  -17.1182  -39.1432   -7.7080 C   0  0  1  0  0  0  0  0  0  0  0  0
  -16.9652  -38.7763   -6.3534 O   0  0  0  0  0  0  0  0  0  0  0  0
  -15.7633  -39.3025   -8.3441 C   0  0  2  0  0  0  0  0  0  0  0  0
  -14.9467  -38.0475   -8.2328 C   0  0  0  0  0  0  0  0  0  0  0  0
  -13.8458  -37.9588   -9.2840 C   0  0  2  0  0  0  0  0  0  0  0  0
  -12.5290  -37.9919   -8.5601 C   0  0  0  0  0  0  0  0  0  0  0  0
  -14.0166  -36.7466  -10.1474 C   0  0  0  0  0  0  0  0  0  0  0  0
  -12.6530  -36.2338  -10.6776 C   0  0  0  0  0  0  0  0  0  0  0  0
  -12.2934  -37.1458  -11.8113 C   0  0  0  0  0  0  0  0  0  0  0  0
  -11.3363  -37.9633  -12.0716 C   0  0  0  0  0  0  0  0  0  0  0  0
  -11.0099  -38.8694  -13.2354 C   0  0  0  0  0  0  0  0  0  0  0  0
  -11.9284  -40.0011  -13.4982 C   0  0  0  0  0  0  0  0  0  0  0  0
  -11.5554  -41.2811  -12.8215 C   0  0  0  0  0  0  0  0  0  0  0  0
  -12.4025  -41.5642  -11.5997 C   0  0  0  0  0  0  0  0  0  0  0  0
  -13.6004  -42.3690  -11.9403 C   0  0  0  0  0  0  0  0  0  0  0  0
  -13.8027  -42.5762  -13.1864 O   0  0  0  0  0  0  0  0  0  0  0  0
  -14.5201  -42.9172  -11.0367 N   0  0  0  0  0  0  0  0  0  0  0  0
  -15.0187  -44.2551  -11.2969 C   0  0  0  0  0  0  0  0  0  0  0  0
  -15.0085  -42.2077   -9.8398 C   0  0  1  0  0  0  0  0  0  0  0  0
  -13.9100  -41.9599   -8.8670 C   0  0  0  0  0  0  0  0  0  0  0  0
  -15.8133  -41.0361  -10.2165 C   0  0  0  0  0  0  0  0  0  0  0  0
  -16.6492  -41.2660  -11.1649 O   0  0  0  0  0  0  0  0  0  0  0  0
  -15.7958  -39.7423   -9.7007 N   0  0  0  0  0  0  0  0  0  0  0  0
  -20.3819  -41.8789   -7.3192 C   0  0  0  0  0  0  0  0  0  0  0  0
  -20.9100  -42.0801   -6.0638 C   0  0  0  0  0  0  0  0  0  0  0  0
  -21.5677  -41.0398   -5.3980 C   0  0  0  0  0  0  0  0  0  0  0  0
  1  2  1  0
  2  3  1  0
  2  4  1  0
  4  5  2  0
  5  6  1  0
  6  7  1  0
  7  8  1  0
  8  9  1  0
  9 10  1  0
 10 11  1  1
 10 12  1  0
 12 13  1  6
 13 14  1  0
 14 15  1  1
 14 16  1  0
 16 17  1  0
 17 18  1  0
 18 19  2  0
 19 20  1  0
 20 21  1  0
 21 22  1  0
 22 23  1  0
 23 24  1  0
 24 25  2  0
 24 26  1  0
 26 27  1  0
 26 28  1  0
 28 29  1  1
 28 30  1  0
 30 31  2  0
 30 32  1  0
  6 33  2  0
 33 34  1  0
 34 35  2  0
 32 12  1  0
 35  4  1  0
M  END
$$$$
