
     RDKit          3D

 35 36  0  0  0  0  0  0  0  0999 V2000
  -13.4473  -34.4653  -12.4923 C   0  0  0  0  0  0  0  0  0  0  0  0
  -12.4657  -35.5525  -12.9501 C   0  0  0  0  0  0  0  0  0  0  0  0
  -12.4383  -35.4940  -14.4464 C   0  0  0  0  0  0  0  0  0  0  0  0
  -12.9358  -36.8551  -12.4213 C   0  0  0  0  0  0  0  0  0  0  0  0
  -13.0434  -37.0522  -11.0527 C   0  0  0  0  0  0  0  0  0  0  0  0
  -13.4716  -38.2383  -10.4973 C   0  0  0  0  0  0  0  0  0  0  0  0
  -13.5827  -38.4277   -9.0174 C   0  0  0  0  0  0  0  0  0  0  0  0
  -13.6758  -39.8290   -8.7786 N   0  0  0  0  0  0  0  0  0  0  0  0
  -15.0142  -40.3816   -8.8926 C   0  0  0  0  0  0  0  0  0  0  0  0
  -15.9711  -39.5157   -8.1512 C   0  0  1  0  0  0  0  0  0  0  0  0
  -15.9406  -38.2156   -8.7005 O   0  0  0  0  0  0  0  0  0  0  0  0
  -17.3922  -40.0098   -8.1022 C   0  0  2  0  0  0  0  0  0  0  0  0
  -18.3685  -38.8786   -7.9560 C   0  0  0  0  0  0  0  0  0  0  0  0
  -19.7056  -39.3187   -7.3700 C   0  0  2  0  0  0  0  0  0  0  0  0
  -20.7529  -39.1011   -8.4259 C   0  0  0  0  0  0  0  0  0  0  0  0
  -19.9987  -38.6007   -6.0883 C   0  0  0  0  0  0  0  0  0  0  0  0
  -21.5249  -38.4458   -5.8637 C   0  0  0  0  0  0  0  0  0  0  0  0
  -21.9965  -39.7804   -5.3708 C   0  0  0  0  0  0  0  0  0  0  0  0
  -22.8190  -40.6789   -5.7810 C   0  0  0  0  0  0  0  0  0  0  0  0
  -23.2683  -42.0196   -5.2493 C   0  0  0  0  0  0  0  0  0  0  0  0
  -22.2586  -43.1012   -5.1834 C   0  0  0  0  0  0  0  0  0  0  0  0
  -22.1938  -43.9726   -6.3966 C   0  0  0  0  0  0  0  0  0  0  0  0
  -21.0153  -43.6456   -7.2881 C   0  0  0  0  0  0  0  0  0  0  0  0
  -19.8229  -44.4532   -6.9351 C   0  0  0  0  0  0  0  0  0  0  0  0
  -19.9239  -45.1748   -5.8835 O   0  0  0  0  0  0  0  0  0  0  0  0
  -18.6110  -44.4997   -7.6364 N   0  0  0  0  0  0  0  0  0  0  0  0
  -17.9595  -45.7875   -7.7897 C   0  0  0  0  0  0  0  0  0  0  0  0
  -17.9630  -43.3122   -8.2236 C   0  0  1  0  0  0  0  0  0  0  0  0
  -18.7899  -42.7219   -9.3108 C   0  0  0  0  0  0  0  0  0  0  0  0
  -17.5197  -42.3836   -7.1733 C   0  0  0  0  0  0  0  0  0  0  0  0
  -16.9380  -42.9612   -6.1839 O   0  0  0  0  0  0  0  0  0  0  0  0
  -17.6399  -40.9976   -7.1033 N   0  0  0  0  0  0  0  0  0  0  0  0
  -13.8069  -39.2724  -11.3439 C   0  0  0  0  0  0  0  0  0  0  0  0
  -13.7133  -39.1153  -12.7085 C   0  0  0  0  0  0  0  0  0  0  0  0
  -13.2762  -37.9025  -13.2526 C   0  0  0  0  0  0  0  0  0  0  0  0
  1  2  1  0
  2  3  1  0
  2  4  1  0
  4  5  2  0
  5  6  1  0
  6  7  1  0
  7  8  1  0
  8  9  1  0
  9 10  1  0
 10 11  1  6
 10 12  1  0
 12 13  1  1
 13 14  1  0
 14 15  1  6
 14 16  1  0
 16 17  1  0
 17 18  1  0
 18 19  2  0
 19 20  1  0
 20 21  1  0
 21 22  1  0
 22 23  1  0
 23 24  1  0
 24 25  2  0
 24 26  1  0
 26 27  1  0
 26 28  1  0
 28 29  1  6
 28 30  1  0
 30 31  2  0
 30 32  1  0
  6 33  2  0
 33 34  1  0
 34 35  2  0
 32 12  1  0
 35  4  1  0
M  END
$$$$
