
     RDKit          3D

 35 36  0  0  0  0  0  0  0  0999 V2000
  -12.0177  -34.7707  -11.4999 C   0  0  0  0  0  0  0  0  0  0  0  0
  -13.3020  -34.7121  -12.3380 C   0  0  0  0  0  0  0  0  0  0  0  0
  -14.0791  -33.5332  -11.8384 C   0  0  0  0  0  0  0  0  0  0  0  0
  -14.0196  -35.9994  -12.1789 C   0  0  0  0  0  0  0  0  0  0  0  0
  -13.5582  -36.9459  -11.2764 C   0  0  0  0  0  0  0  0  0  0  0  0
  -14.1774  -38.1614  -11.0823 C   0  0  0  0  0  0  0  0  0  0  0  0
  -13.6636  -39.1668  -10.1007 C   0  0  0  0  0  0  0  0  0  0  0  0
  -14.5392  -39.1434   -8.9773 N   0  0  0  0  0  0  0  0  0  0  0  0
  -15.5338  -40.2016   -8.9546 C   0  0  0  0  0  0  0  0  0  0  0  0
  -16.3403  -40.0953   -7.7082 C   0  0  1  0  0  0  0  0  0  0  0  0
  -16.1678  -38.8088   -7.1535 O   0  0  0  0  0  0  0  0  0  0  0  0
  -17.8093  -40.3884   -7.8567 C   0  0  2  0  0  0  0  0  0  0  0  0
  -18.6338  -39.1348   -7.8022 C   0  0  0  0  0  0  0  0  0  0  0  0
  -20.0833  -39.3929   -7.4060 C   0  0  2  0  0  0  0  0  0  0  0  0
  -20.9439  -39.0189   -8.5802 C   0  0  0  0  0  0  0  0  0  0  0  0
  -20.4418  -38.6575   -6.1510 C   0  0  0  0  0  0  0  0  0  0  0  0
  -21.9489  -38.2956   -6.1191 C   0  0  0  0  0  0  0  0  0  0  0  0
  -22.6578  -39.5581   -5.7317 C   0  0  0  0  0  0  0  0  0  0  0  0
  -23.5336  -40.3287   -6.2712 C   0  0  0  0  0  0  0  0  0  0  0  0
  -24.2265  -41.6009   -5.8426 C   0  0  0  0  0  0  0  0  0  0  0  0
  -23.3903  -42.8126   -5.6811 C   0  0  0  0  0  0  0  0  0  0  0  0
  -23.2859  -43.6692   -6.9021 C   0  0  0  0  0  0  0  0  0  0  0  0
  -21.9674  -43.4973   -7.6250 C   0  0  0  0  0  0  0  0  0  0  0  0
  -20.9522  -44.4667   -7.1471 C   0  0  0  0  0  0  0  0  0  0  0  0
  -21.2871  -45.1806   -6.1397 O   0  0  0  0  0  0  0  0  0  0  0  0
  -19.6765  -44.6718   -7.6885 N   0  0  0  0  0  0  0  0  0  0  0  0
  -19.1914  -46.0354   -7.7964 C   0  0  0  0  0  0  0  0  0  0  0  0
  -18.8021  -43.5781   -8.1513 C   0  0  1  0  0  0  0  0  0  0  0  0
  -19.3916  -42.8652   -9.3168 C   0  0  0  0  0  0  0  0  0  0  0  0
  -18.3783  -42.7333   -7.0249 C   0  0  0  0  0  0  0  0  0  0  0  0
  -18.0151  -43.3984   -5.9873 O   0  0  0  0  0  0  0  0  0  0  0  0
  -18.3175  -41.3449   -6.9285 N   0  0  0  0  0  0  0  0  0  0  0  0
  -15.3058  -38.4449  -11.8208 C   0  0  0  0  0  0  0  0  0  0  0  0
  -15.7945  -37.5308  -12.7269 C   0  0  0  0  0  0  0  0  0  0  0  0
  -15.1508  -36.3017  -12.9090 C   0  0  0  0  0  0  0  0  0  0  0  0
  1  2  1  0
  2  3  1  0
  2  4  1  0
  4  5  2  0
  5  6  1  0
  6  7  1  0
  7  8  1  0
  8  9  1  0
  9 10  1  0
 10 11  1  6
 10 12  1  0
 12 13  1  1
 13 14  1  0
 14 15  1  6
 14 16  1  0
 16 17  1  0
 17 18  1  0
 18 19  2  0
 19 20  1  0
 20 21  1  0
 21 22  1  0
 22 23  1  0
 23 24  1  0
 24 25  2  0
 24 26  1  0
 26 27  1  0
 26 28  1  0
 28 29  1  6
 28 30  1  0
 30 31  2  0
 30 32  1  0
  6 33  2  0
 33 34  1  0
 34 35  2  0
 32 12  1  0
 35  4  1  0
M  END
$$$$
