
     RDKit          3D

 35 36  0  0  0  0  0  0  0  0999 V2000
  -15.4671  -35.4964  -14.6644 C   0  0  0  0  0  0  0  0  0  0  0  0
  -15.6582  -36.8696  -14.0064 C   0  0  0  0  0  0  0  0  0  0  0  0
  -17.1084  -37.2121  -14.1571 C   0  0  0  0  0  0  0  0  0  0  0  0
  -15.2208  -36.7724  -12.5934 C   0  0  0  0  0  0  0  0  0  0  0  0
  -14.4360  -37.7718  -12.0379 C   0  0  0  0  0  0  0  0  0  0  0  0
  -13.9981  -37.7425  -10.7318 C   0  0  0  0  0  0  0  0  0  0  0  0
  -13.1494  -38.8308  -10.1541 C   0  0  0  0  0  0  0  0  0  0  0  0
  -13.8786  -39.4036   -9.0726 N   0  0  0  0  0  0  0  0  0  0  0  0
  -15.3000  -39.5764   -9.3166 C   0  0  0  0  0  0  0  0  0  0  0  0
  -16.0391  -39.4677   -8.0293 C   0  0  1  0  0  0  0  0  0  0  0  0
  -16.1047  -38.1106   -7.6462 O   0  0  0  0  0  0  0  0  0  0  0  0
  -17.4221  -40.0621   -8.0209 C   0  0  2  0  0  0  0  0  0  0  0  0
  -18.4671  -39.0322   -7.7027 C   0  0  0  0  0  0  0  0  0  0  0  0
  -19.7545  -39.6399   -7.1567 C   0  0  2  0  0  0  0  0  0  0  0  0
  -20.8437  -39.3555   -8.1525 C   0  0  0  0  0  0  0  0  0  0  0  0
  -20.0581  -39.1239   -5.7834 C   0  0  0  0  0  0  0  0  0  0  0  0
  -21.5841  -39.1079   -5.5104 C   0  0  0  0  0  0  0  0  0  0  0  0
  -21.9514  -40.5266   -5.1956 C   0  0  0  0  0  0  0  0  0  0  0  0
  -22.7235  -41.4167   -5.7089 C   0  0  0  0  0  0  0  0  0  0  0  0
  -23.0669  -42.8451   -5.3568 C   0  0  0  0  0  0  0  0  0  0  0  0
  -21.9859  -43.8523   -5.4589 C   0  0  0  0  0  0  0  0  0  0  0  0
  -21.8978  -44.5452   -6.7808 C   0  0  0  0  0  0  0  0  0  0  0  0
  -20.7698  -44.0191   -7.6418 C   0  0  0  0  0  0  0  0  0  0  0  0
  -19.5165  -44.7816   -7.4256 C   0  0  0  0  0  0  0  0  0  0  0  0
  -19.5390  -45.6438   -6.4808 O   0  0  0  0  0  0  0  0  0  0  0  0
  -18.3248  -44.6480   -8.1499 N   0  0  0  0  0  0  0  0  0  0  0  0
  -17.5935  -45.8546   -8.4903 C   0  0  0  0  0  0  0  0  0  0  0  0
  -17.7746  -43.3497   -8.5816 C   0  0  1  0  0  0  0  0  0  0  0  0
  -18.6698  -42.6773   -9.5618 C   0  0  0  0  0  0  0  0  0  0  0  0
  -17.3643  -42.5427   -7.4229 C   0  0  0  0  0  0  0  0  0  0  0  0
  -16.7173  -43.2065   -6.5332 O   0  0  0  0  0  0  0  0  0  0  0  0
  -17.5746  -41.1907   -7.1619 N   0  0  0  0  0  0  0  0  0  0  0  0
  -14.3590  -36.6698   -9.9458 C   0  0  0  0  0  0  0  0  0  0  0  0
  -15.1373  -35.6578  -10.4612 C   0  0  0  0  0  0  0  0  0  0  0  0
  -15.5718  -35.7064  -11.7905 C   0  0  0  0  0  0  0  0  0  0  0  0
  1  2  1  0
  2  3  1  0
  2  4  1  0
  4  5  2  0
  5  6  1  0
  6  7  1  0
  7  8  1  0
  8  9  1  0
  9 10  1  0
 10 11  1  6
 10 12  1  0
 12 13  1  1
 13 14  1  0
 14 15  1  6
 14 16  1  0
 16 17  1  0
 17 18  1  0
 18 19  2  0
 19 20  1  0
 20 21  1  0
 21 22  1  0
 22 23  1  0
 23 24  1  0
 24 25  2  0
 24 26  1  0
 26 27  1  0
 26 28  1  0
 28 29  1  1
 28 30  1  0
 30 31  2  0
 30 32  1  0
  6 33  2  0
 33 34  1  0
 34 35  2  0
 32 12  1  0
 35  4  1  0
M  END
$$$$
