
     RDKit          3D

 35 36  0  0  0  0  0  0  0  0999 V2000
  -23.6072  -41.8535   -4.6099 C   0  0  0  0  0  0  0  0  0  0  0  0
  -22.1225  -41.8788   -4.9976 C   0  0  0  0  0  0  0  0  0  0  0  0
  -21.3803  -41.2290   -3.8707 C   0  0  0  0  0  0  0  0  0  0  0  0
  -21.9679  -41.1693   -6.2899 C   0  0  0  0  0  0  0  0  0  0  0  0
  -20.8624  -40.3617   -6.5120 C   0  0  0  0  0  0  0  0  0  0  0  0
  -20.6604  -39.6743   -7.6889 C   0  0  0  0  0  0  0  0  0  0  0  0
  -19.4584  -38.8107   -7.9079 C   0  0  0  0  0  0  0  0  0  0  0  0
  -18.4721  -39.6165   -8.5460 N   0  0  0  0  0  0  0  0  0  0  0  0
  -17.3078  -39.9179   -7.7316 C   0  0  0  0  0  0  0  0  0  0  0  0
  -16.3330  -38.7975   -7.8292 C   0  0  1  0  0  0  0  0  0  0  0  0
  -15.8117  -38.5242   -6.5461 O   0  0  0  0  0  0  0  0  0  0  0  0
  -15.2016  -39.0021   -8.8008 C   0  0  2  0  0  0  0  0  0  0  0  0
  -14.2346  -37.8538   -8.7768 C   0  0  0  0  0  0  0  0  0  0  0  0
  -13.4175  -37.7373  -10.0588 C   0  0  2  0  0  0  0  0  0  0  0  0
  -11.9793  -37.9855   -9.6996 C   0  0  0  0  0  0  0  0  0  0  0  0
  -13.6414  -36.4150  -10.7264 C   0  0  0  0  0  0  0  0  0  0  0  0
  -12.3936  -35.9702  -11.5318 C   0  0  0  0  0  0  0  0  0  0  0  0
  -12.4328  -36.7615  -12.8041 C   0  0  0  0  0  0  0  0  0  0  0  0
  -11.6745  -37.6261  -13.3781 C   0  0  0  0  0  0  0  0  0  0  0  0
  -11.7522  -38.4046  -14.6703 C   0  0  0  0  0  0  0  0  0  0  0  0
  -12.8387  -39.4024  -14.8021 C   0  0  0  0  0  0  0  0  0  0  0  0
  -12.4735  -40.7870  -14.3721 C   0  0  0  0  0  0  0  0  0  0  0  0
  -13.0290  -41.1411  -13.0096 C   0  0  0  0  0  0  0  0  0  0  0  0
  -14.3631  -41.7799  -13.1130 C   0  0  0  0  0  0  0  0  0  0  0  0
  -14.8839  -41.8081  -14.2812 O   0  0  0  0  0  0  0  0  0  0  0  0
  -15.0979  -42.3487  -12.0645 N   0  0  0  0  0  0  0  0  0  0  0  0
  -15.8049  -43.5900  -12.3206 C   0  0  0  0  0  0  0  0  0  0  0  0
  -15.1923  -41.7532  -10.7187 C   0  0  1  0  0  0  0  0  0  0  0  0
  -13.8698  -41.7350  -10.0368 C   0  0  0  0  0  0  0  0  0  0  0  0
  -15.9142  -40.4729  -10.7612 C   0  0  0  0  0  0  0  0  0  0  0  0
  -16.9758  -40.5014  -11.4844 O   0  0  0  0  0  0  0  0  0  0  0  0
  -15.6141  -39.2620  -10.1414 N   0  0  0  0  0  0  0  0  0  0  0  0
  -21.6020  -39.7977   -8.6874 C   0  0  0  0  0  0  0  0  0  0  0  0
  -22.7130  -40.5900   -8.5046 C   0  0  0  0  0  0  0  0  0  0  0  0
  -22.8996  -41.2801   -7.3016 C   0  0  0  0  0  0  0  0  0  0  0  0
  1  2  1  0
  2  3  1  0
  2  4  1  0
  4  5  2  0
  5  6  1  0
  6  7  1  0
  7  8  1  0
  8  9  1  0
  9 10  1  0
 10 11  1  1
 10 12  1  0
 12 13  1  6
 13 14  1  0
 14 15  1  1
 14 16  1  0
 16 17  1  0
 17 18  1  0
 18 19  2  0
 19 20  1  0
 20 21  1  0
 21 22  1  0
 22 23  1  0
 23 24  1  0
 24 25  2  0
 24 26  1  0
 26 27  1  0
 26 28  1  0
 28 29  1  6
 28 30  1  0
 30 31  2  0
 30 32  1  0
  6 33  2  0
 33 34  1  0
 34 35  2  0
 32 12  1  0
 35  4  1  0
M  END
$$$$
