
     RDKit          3D

 35 36  0  0  0  0  0  0  0  0999 V2000
  -24.2304  -37.7069   -7.1157 C   0  0  0  0  0  0  0  0  0  0  0  0
  -22.7628  -37.2600   -7.1538 C   0  0  0  0  0  0  0  0  0  0  0  0
  -22.4485  -36.9634   -8.5878 C   0  0  0  0  0  0  0  0  0  0  0  0
  -21.9316  -38.3462   -6.5823 C   0  0  0  0  0  0  0  0  0  0  0  0
  -20.9698  -38.9701   -7.3628 C   0  0  0  0  0  0  0  0  0  0  0  0
  -20.1666  -39.9864   -6.8932 C   0  0  0  0  0  0  0  0  0  0  0  0
  -19.1330  -40.6434   -7.7525 C   0  0  0  0  0  0  0  0  0  0  0  0
  -18.1874  -39.6411   -8.1139 N   0  0  0  0  0  0  0  0  0  0  0  0
  -16.9170  -39.7178   -7.4141 C   0  0  0  0  0  0  0  0  0  0  0  0
  -16.0589  -38.5717   -7.8206 C   0  0  1  0  0  0  0  0  0  0  0  0
  -15.5540  -37.9383   -6.6644 O   0  0  0  0  0  0  0  0  0  0  0  0
  -14.9228  -38.9067   -8.7496 C   0  0  2  0  0  0  0  0  0  0  0  0
  -14.0300  -37.7227   -8.9844 C   0  0  0  0  0  0  0  0  0  0  0  0
  -13.2297  -37.8283  -10.2780 C   0  0  2  0  0  0  0  0  0  0  0  0
  -11.7766  -37.9085   -9.9025 C   0  0  0  0  0  0  0  0  0  0  0  0
  -13.5406  -36.6913  -11.2025 C   0  0  0  0  0  0  0  0  0  0  0  0
  -12.3283  -36.3506  -12.1068 C   0  0  0  0  0  0  0  0  0  0  0  0
  -12.3254  -37.3919  -13.1849 C   0  0  0  0  0  0  0  0  0  0  0  0
  -11.5176  -38.3102  -13.5802 C   0  0  0  0  0  0  0  0  0  0  0  0
  -11.5541  -39.3455  -14.6797 C   0  0  0  0  0  0  0  0  0  0  0  0
  -12.5764  -40.4124  -14.5793 C   0  0  0  0  0  0  0  0  0  0  0  0
  -12.1219  -41.6516  -13.8769 C   0  0  0  0  0  0  0  0  0  0  0  0
  -12.6457  -41.7451  -12.4600 C   0  0  0  0  0  0  0  0  0  0  0  0
  -13.9375  -42.4707  -12.4022 C   0  0  0  0  0  0  0  0  0  0  0  0
  -14.4626  -42.7744  -13.5286 O   0  0  0  0  0  0  0  0  0  0  0  0
  -14.6285  -42.8505  -11.2441 N   0  0  0  0  0  0  0  0  0  0  0  0
  -15.2574  -44.1582  -11.2219 C   0  0  0  0  0  0  0  0  0  0  0  0
  -14.7520  -41.9930  -10.0507 C   0  0  1  0  0  0  0  0  0  0  0  0
  -13.4291  -41.7525   -9.4132 C   0  0  0  0  0  0  0  0  0  0  0  0
  -15.5533  -40.7959  -10.3458 C   0  0  0  0  0  0  0  0  0  0  0  0
  -16.6155  -41.0393  -11.0265 O   0  0  0  0  0  0  0  0  0  0  0  0
  -15.3263  -39.4662   -9.9982 N   0  0  0  0  0  0  0  0  0  0  0  0
  -20.3300  -40.3980   -5.5884 C   0  0  0  0  0  0  0  0  0  0  0  0
  -21.2742  -39.8033   -4.7821 C   0  0  0  0  0  0  0  0  0  0  0  0
  -22.0802  -38.7725   -5.2784 C   0  0  0  0  0  0  0  0  0  0  0  0
  1  2  1  0
  2  3  1  0
  2  4  1  0
  4  5  2  0
  5  6  1  0
  6  7  1  0
  7  8  1  0
  8  9  1  0
  9 10  1  0
 10 11  1  1
 10 12  1  0
 12 13  1  6
 13 14  1  0
 14 15  1  1
 14 16  1  0
 16 17  1  0
 17 18  1  0
 18 19  2  0
 19 20  1  0
 20 21  1  0
 21 22  1  0
 22 23  1  0
 23 24  1  0
 24 25  2  0
 24 26  1  0
 26 27  1  0
 26 28  1  0
 28 29  1  6
 28 30  1  0
 30 31  2  0
 30 32  1  0
  6 33  2  0
 33 34  1  0
 34 35  2  0
 32 12  1  0
 35  4  1  0
M  END
$$$$
