
     RDKit          3D

 35 36  0  0  0  0  0  0  0  0999 V2000
  -15.7539  -34.8683  -12.8089 C   0  0  0  0  0  0  0  0  0  0  0  0
  -15.0949  -34.6508  -11.4400 C   0  0  0  0  0  0  0  0  0  0  0  0
  -14.6683  -33.2157  -11.3997 C   0  0  0  0  0  0  0  0  0  0  0  0
  -13.9664  -35.6034  -11.3114 C   0  0  0  0  0  0  0  0  0  0  0  0
  -14.2148  -36.9534  -11.1135 C   0  0  0  0  0  0  0  0  0  0  0  0
  -13.2119  -37.8893  -10.9844 C   0  0  0  0  0  0  0  0  0  0  0  0
  -13.5032  -39.3418  -10.7743 C   0  0  0  0  0  0  0  0  0  0  0  0
  -13.9789  -39.4866   -9.4394 N   0  0  0  0  0  0  0  0  0  0  0  0
  -15.2854  -40.1097   -9.3197 C   0  0  0  0  0  0  0  0  0  0  0  0
  -16.0120  -39.5164   -8.1642 C   0  0  1  0  0  0  0  0  0  0  0  0
  -15.8915  -38.1107   -8.2139 O   0  0  0  0  0  0  0  0  0  0  0  0
  -17.4641  -39.8947   -8.0449 C   0  0  2  0  0  0  0  0  0  0  0  0
  -18.3196  -38.7106   -7.6982 C   0  0  0  0  0  0  0  0  0  0  0  0
  -19.6423  -39.1022   -7.0484 C   0  0  2  0  0  0  0  0  0  0  0  0
  -20.7433  -38.6834   -7.9819 C   0  0  0  0  0  0  0  0  0  0  0  0
  -19.7699  -38.5096   -5.6785 C   0  0  0  0  0  0  0  0  0  0  0  0
  -21.2540  -38.2561   -5.3086 C   0  0  0  0  0  0  0  0  0  0  0  0
  -21.8056  -39.5940   -4.9186 C   0  0  0  0  0  0  0  0  0  0  0  0
  -22.7352  -40.3709   -5.3479 C   0  0  0  0  0  0  0  0  0  0  0  0
  -23.2622  -41.7211   -4.9219 C   0  0  0  0  0  0  0  0  0  0  0  0
  -22.3528  -42.8823   -5.0561 C   0  0  0  0  0  0  0  0  0  0  0  0
  -22.4605  -43.6158   -6.3545 C   0  0  0  0  0  0  0  0  0  0  0  0
  -21.3290  -43.2894   -7.3052 C   0  0  0  0  0  0  0  0  0  0  0  0
  -20.1913  -44.2262   -7.1421 C   0  0  0  0  0  0  0  0  0  0  0  0
  -20.2764  -45.0495   -6.1666 O   0  0  0  0  0  0  0  0  0  0  0  0
  -19.0459  -44.2936   -7.9460 N   0  0  0  0  0  0  0  0  0  0  0  0
  -18.5277  -45.6054   -8.2880 C   0  0  0  0  0  0  0  0  0  0  0  0
  -18.3398  -43.1053   -8.4599 C   0  0  1  0  0  0  0  0  0  0  0  0
  -19.1907  -42.3320   -9.4046 C   0  0  0  0  0  0  0  0  0  0  0  0
  -17.7348  -42.3386   -7.3606 C   0  0  0  0  0  0  0  0  0  0  0  0
  -17.1339  -43.0684   -6.4905 O   0  0  0  0  0  0  0  0  0  0  0  0
  -17.7231  -40.9638   -7.1367 N   0  0  0  0  0  0  0  0  0  0  0  0
  -11.9045  -37.4598  -11.0556 C   0  0  0  0  0  0  0  0  0  0  0  0
  -11.6175  -36.1276  -11.2510 C   0  0  0  0  0  0  0  0  0  0  0  0
  -12.6508  -35.1928  -11.3798 C   0  0  0  0  0  0  0  0  0  0  0  0
  1  2  1  0
  2  3  1  0
  2  4  1  0
  4  5  2  0
  5  6  1  0
  6  7  1  0
  7  8  1  0
  8  9  1  0
  9 10  1  0
 10 11  1  6
 10 12  1  0
 12 13  1  1
 13 14  1  0
 14 15  1  6
 14 16  1  0
 16 17  1  0
 17 18  1  0
 18 19  2  0
 19 20  1  0
 20 21  1  0
 21 22  1  0
 22 23  1  0
 23 24  1  0
 24 25  2  0
 24 26  1  0
 26 27  1  0
 26 28  1  0
 28 29  1  1
 28 30  1  0
 30 31  2  0
 30 32  1  0
  6 33  2  0
 33 34  1  0
 34 35  2  0
 32 12  1  0
 35  4  1  0
M  END
$$$$
