
     RDKit          3D

 35 36  0  0  0  0  0  0  0  0999 V2000
  -24.1530  -42.4182   -6.2366 C   0  0  0  0  0  0  0  0  0  0  0  0
  -23.0268  -42.0891   -7.2259 C   0  0  0  0  0  0  0  0  0  0  0  0
  -22.0834  -43.2519   -7.1941 C   0  0  0  0  0  0  0  0  0  0  0  0
  -22.4003  -40.8122   -6.8084 C   0  0  0  0  0  0  0  0  0  0  0  0
  -21.6163  -40.0974   -7.7015 C   0  0  0  0  0  0  0  0  0  0  0  0
  -21.0050  -38.9062   -7.3760 C   0  0  0  0  0  0  0  0  0  0  0  0
  -20.1656  -38.1502   -8.3570 C   0  0  0  0  0  0  0  0  0  0  0  0
  -18.9206  -37.8755   -7.7214 N   0  0  0  0  0  0  0  0  0  0  0  0
  -17.9025  -38.8952   -7.9036 C   0  0  0  0  0  0  0  0  0  0  0  0
  -16.5596  -38.3021   -7.6585 C   0  0  1  0  0  0  0  0  0  0  0  0
  -16.2677  -38.3711   -6.2790 O   0  0  0  0  0  0  0  0  0  0  0  0
  -15.4277  -38.9072   -8.4449 C   0  0  2  0  0  0  0  0  0  0  0  0
  -14.2387  -37.9921   -8.5003 C   0  0  0  0  0  0  0  0  0  0  0  0
  -13.3183  -38.2834   -9.6805 C   0  0  2  0  0  0  0  0  0  0  0  0
  -12.0012  -38.7430   -9.1210 C   0  0  0  0  0  0  0  0  0  0  0  0
  -13.1960  -37.0916  -10.5800 C   0  0  0  0  0  0  0  0  0  0  0  0
  -11.8223  -37.0643  -11.2982 C   0  0  0  0  0  0  0  0  0  0  0  0
  -11.9335  -38.0553  -12.4171 C   0  0  0  0  0  0  0  0  0  0  0  0
  -11.3393  -39.1461  -12.7477 C   0  0  0  0  0  0  0  0  0  0  0  0
  -11.4837  -40.1208  -13.8928 C   0  0  0  0  0  0  0  0  0  0  0  0
  -12.7478  -40.8874  -13.9817 C   0  0  0  0  0  0  0  0  0  0  0  0
  -12.7276  -42.2118  -13.2882 C   0  0  0  0  0  0  0  0  0  0  0  0
  -13.4515  -42.1863  -11.9593 C   0  0  0  0  0  0  0  0  0  0  0  0
  -14.8805  -42.5528  -12.1089 C   0  0  0  0  0  0  0  0  0  0  0  0
  -15.3021  -42.6939  -13.3085 O   0  0  0  0  0  0  0  0  0  0  0  0
  -15.8010  -42.7566  -11.0726 N   0  0  0  0  0  0  0  0  0  0  0  0
  -16.7392  -43.8567  -11.1989 C   0  0  0  0  0  0  0  0  0  0  0  0
  -15.8682  -41.9134   -9.8646 C   0  0  1  0  0  0  0  0  0  0  0  0
  -14.6308  -42.0334   -9.0469 C   0  0  0  0  0  0  0  0  0  0  0  0
  -16.2882  -40.5454  -10.2027 C   0  0  0  0  0  0  0  0  0  0  0  0
  -17.2708  -40.4953  -11.0290 O   0  0  0  0  0  0  0  0  0  0  0  0
  -15.7809  -39.3252   -9.7623 N   0  0  0  0  0  0  0  0  0  0  0  0
  -21.1836  -38.4066   -6.1043 C   0  0  0  0  0  0  0  0  0  0  0  0
  -21.9548  -39.0872   -5.1892 C   0  0  0  0  0  0  0  0  0  0  0  0
  -22.5672  -40.2956   -5.5398 C   0  0  0  0  0  0  0  0  0  0  0  0
  1  2  1  0
  2  3  1  0
  2  4  1  0
  4  5  2  0
  5  6  1  0
  6  7  1  0
  7  8  1  0
  8  9  1  0
  9 10  1  0
 10 11  1  1
 10 12  1  0
 12 13  1  6
 13 14  1  0
 14 15  1  1
 14 16  1  0
 16 17  1  0
 17 18  1  0
 18 19  2  0
 19 20  1  0
 20 21  1  0
 21 22  1  0
 22 23  1  0
 23 24  1  0
 24 25  2  0
 24 26  1  0
 26 27  1  0
 26 28  1  0
 28 29  1  6
 28 30  1  0
 30 31  2  0
 30 32  1  0
  6 33  2  0
 33 34  1  0
 34 35  2  0
 32 12  1  0
 35  4  1  0
M  END
$$$$
