
     RDKit          3D

 35 36  0  0  0  0  0  0  0  0999 V2000
  -24.5834  -39.4588   -4.7324 C   0  0  0  0  0  0  0  0  0  0  0  0
  -23.9838  -39.5957   -6.1385 C   0  0  0  0  0  0  0  0  0  0  0  0
  -23.9202  -41.0635   -6.4297 C   0  0  0  0  0  0  0  0  0  0  0  0
  -22.6557  -38.9374   -6.1432 C   0  0  0  0  0  0  0  0  0  0  0  0
  -21.5339  -39.6313   -5.7147 C   0  0  0  0  0  0  0  0  0  0  0  0
  -20.2726  -39.0772   -5.6925 C   0  0  0  0  0  0  0  0  0  0  0  0
  -19.0756  -39.8457   -5.2288 C   0  0  0  0  0  0  0  0  0  0  0  0
  -18.4089  -40.3278   -6.3917 N   0  0  0  0  0  0  0  0  0  0  0  0
  -17.2000  -39.6055   -6.7476 C   0  0  0  0  0  0  0  0  0  0  0  0
  -17.2659  -39.2073   -8.1802 C   0  0  1  0  0  0  0  0  0  0  0  0
  -17.4445  -37.8095   -8.2644 O   0  0  0  0  0  0  0  0  0  0  0  0
  -16.0891  -39.6177   -9.0244 C   0  0  2  0  0  0  0  0  0  0  0  0
  -15.5005  -38.4497   -9.7616 C   0  0  0  0  0  0  0  0  0  0  0  0
  -14.7063  -38.8640  -10.9955 C   0  0  2  0  0  0  0  0  0  0  0  0
  -13.2725  -38.4819  -10.7567 C   0  0  0  0  0  0  0  0  0  0  0  0
  -15.2814  -38.2584  -12.2392 C   0  0  0  0  0  0  0  0  0  0  0  0
  -14.1888  -38.0350  -13.3162 C   0  0  0  0  0  0  0  0  0  0  0  0
  -13.9489  -39.3806  -13.9311 C   0  0  0  0  0  0  0  0  0  0  0  0
  -12.9509  -40.1838  -14.0360 C   0  0  0  0  0  0  0  0  0  0  0  0
  -12.7507  -41.5407  -14.6692 C   0  0  0  0  0  0  0  0  0  0  0  0
  -13.4935  -42.6821  -14.0871 C   0  0  0  0  0  0  0  0  0  0  0  0
  -12.7564  -43.4331  -13.0249 C   0  0  0  0  0  0  0  0  0  0  0  0
  -13.2343  -43.0918  -11.6300 C   0  0  0  0  0  0  0  0  0  0  0  0
  -14.3194  -44.0001  -11.1870 C   0  0  0  0  0  0  0  0  0  0  0  0
  -14.7661  -44.8136  -12.0676 O   0  0  0  0  0  0  0  0  0  0  0  0
  -14.8943  -44.0505   -9.9105 N   0  0  0  0  0  0  0  0  0  0  0  0
  -15.1988  -45.3539   -9.3494 C   0  0  0  0  0  0  0  0  0  0  0  0
  -15.2076  -42.8523   -9.1099 C   0  0  1  0  0  0  0  0  0  0  0  0
  -13.9739  -42.1101   -8.7342 C   0  0  0  0  0  0  0  0  0  0  0  0
  -16.2694  -42.0590   -9.7467 C   0  0  0  0  0  0  0  0  0  0  0  0
  -17.2493  -42.7644  -10.1861 O   0  0  0  0  0  0  0  0  0  0  0  0
  -16.3583  -40.6817   -9.9355 N   0  0  0  0  0  0  0  0  0  0  0  0
  -20.1239  -37.7744   -6.1161 C   0  0  0  0  0  0  0  0  0  0  0  0
  -21.2137  -37.0527   -6.5486 C   0  0  0  0  0  0  0  0  0  0  0  0
  -22.4865  -37.6340   -6.5634 C   0  0  0  0  0  0  0  0  0  0  0  0
  1  2  1  0
  2  3  1  0
  2  4  1  0
  4  5  2  0
  5  6  1  0
  6  7  1  0
  7  8  1  0
  8  9  1  0
  9 10  1  0
 10 11  1  1
 10 12  1  0
 12 13  1  6
 13 14  1  0
 14 15  1  1
 14 16  1  0
 16 17  1  0
 17 18  1  0
 18 19  2  0
 19 20  1  0
 20 21  1  0
 21 22  1  0
 22 23  1  0
 23 24  1  0
 24 25  2  0
 24 26  1  0
 26 27  1  0
 26 28  1  0
 28 29  1  6
 28 30  1  0
 30 31  2  0
 30 32  1  0
  6 33  2  0
 33 34  1  0
 34 35  2  0
 32 12  1  0
 35  4  1  0
M  END
$$$$
