
     RDKit          3D

 35 36  0  0  0  0  0  0  0  0999 V2000
  -15.5057  -34.8098  -10.2551 C   0  0  0  0  0  0  0  0  0  0  0  0
  -14.6081  -34.6704  -11.4921 C   0  0  0  0  0  0  0  0  0  0  0  0
  -15.5192  -34.6990  -12.6805 C   0  0  0  0  0  0  0  0  0  0  0  0
  -13.6240  -35.7788  -11.4790 C   0  0  0  0  0  0  0  0  0  0  0  0
  -13.9685  -37.0086  -10.9384 C   0  0  0  0  0  0  0  0  0  0  0  0
  -13.1006  -38.0778  -10.8938 C   0  0  0  0  0  0  0  0  0  0  0  0
  -13.4949  -39.3969  -10.3081 C   0  0  0  0  0  0  0  0  0  0  0  0
  -14.3150  -39.1259   -9.1754 N   0  0  0  0  0  0  0  0  0  0  0  0
  -15.4733  -39.9913   -9.0375 C   0  0  0  0  0  0  0  0  0  0  0  0
  -16.2924  -39.5401   -7.8796 C   0  0  1  0  0  0  0  0  0  0  0  0
  -16.3122  -38.1289   -7.8484 O   0  0  0  0  0  0  0  0  0  0  0  0
  -17.7022  -40.0659   -7.8355 C   0  0  2  0  0  0  0  0  0  0  0  0
  -18.6797  -39.0004   -7.4314 C   0  0  0  0  0  0  0  0  0  0  0  0
  -19.9728  -39.5669   -6.8554 C   0  0  2  0  0  0  0  0  0  0  0  0
  -21.0861  -39.1876   -7.7911 C   0  0  0  0  0  0  0  0  0  0  0  0
  -20.1933  -39.0952   -5.4507 C   0  0  0  0  0  0  0  0  0  0  0  0
  -21.7040  -39.0161   -5.1118 C   0  0  0  0  0  0  0  0  0  0  0  0
  -22.1295  -40.4271   -4.8387 C   0  0  0  0  0  0  0  0  0  0  0  0
  -22.9662  -41.2559   -5.3536 C   0  0  0  0  0  0  0  0  0  0  0  0
  -23.3669  -42.6794   -5.0448 C   0  0  0  0  0  0  0  0  0  0  0  0
  -22.3434  -43.7331   -5.2338 C   0  0  0  0  0  0  0  0  0  0  0  0
  -22.3449  -44.3729   -6.5851 C   0  0  0  0  0  0  0  0  0  0  0  0
  -21.2278  -43.8667   -7.4721 C   0  0  0  0  0  0  0  0  0  0  0  0
  -20.0071  -44.6981   -7.3409 C   0  0  0  0  0  0  0  0  0  0  0  0
  -20.0345  -45.5974   -6.4314 O   0  0  0  0  0  0  0  0  0  0  0  0
  -18.8408  -44.5925   -8.1099 N   0  0  0  0  0  0  0  0  0  0  0  0
  -18.1862  -45.8179   -8.5297 C   0  0  0  0  0  0  0  0  0  0  0  0
  -18.2436  -43.3056   -8.5123 C   0  0  1  0  0  0  0  0  0  0  0  0
  -19.1430  -42.5493   -9.4252 C   0  0  0  0  0  0  0  0  0  0  0  0
  -17.7457  -42.5694   -7.3409 C   0  0  0  0  0  0  0  0  0  0  0  0
  -17.0973  -43.3011   -6.5073 O   0  0  0  0  0  0  0  0  0  0  0  0
  -17.8764  -41.2209   -7.0168 N   0  0  0  0  0  0  0  0  0  0  0  0
  -11.8341  -37.9130  -11.4111 C   0  0  0  0  0  0  0  0  0  0  0  0
  -11.4546  -36.7072  -11.9564 C   0  0  0  0  0  0  0  0  0  0  0  0
  -12.3512  -35.6334  -11.9920 C   0  0  0  0  0  0  0  0  0  0  0  0
  1  2  1  0
  2  3  1  0
  2  4  1  0
  4  5  2  0
  5  6  1  0
  6  7  1  0
  7  8  1  0
  8  9  1  0
  9 10  1  0
 10 11  1  6
 10 12  1  0
 12 13  1  1
 13 14  1  0
 14 15  1  6
 14 16  1  0
 16 17  1  0
 17 18  1  0
 18 19  2  0
 19 20  1  0
 20 21  1  0
 21 22  1  0
 22 23  1  0
 23 24  1  0
 24 25  2  0
 24 26  1  0
 26 27  1  0
 26 28  1  0
 28 29  1  1
 28 30  1  0
 30 31  2  0
 30 32  1  0
  6 33  2  0
 33 34  1  0
 34 35  2  0
 32 12  1  0
 35  4  1  0
M  END
$$$$
