
     RDKit          3D

 42 45  0  0  0  0  0  0  0  0999 V2000
  -18.2385  -45.7752   -1.5692 C   0  0  0  0  0  0  0  0  0  0  0  0
  -18.4038  -45.2473   -2.8359 O   0  0  0  0  0  0  0  0  0  0  0  0
  -19.7324  -45.2370   -3.2418 C   0  0  0  0  0  0  0  0  0  0  0  0
  -19.9663  -44.0495   -4.1265 C   0  0  0  0  0  0  0  0  0  0  0  0
  -21.2140  -43.5558   -4.3467 C   0  0  0  0  0  0  0  0  0  0  0  0
  -21.4597  -42.4352   -5.1871 C   0  0  0  0  0  0  0  0  0  0  0  0
  -20.4003  -41.8192   -5.8099 C   0  0  0  0  0  0  0  0  0  0  0  0
  -19.1095  -42.2787   -5.6195 C   0  0  0  0  0  0  0  0  0  0  0  0
  -18.9471  -43.4065   -4.7610 C   0  0  0  0  0  0  0  0  0  0  0  0
  -17.8181  -41.7694   -6.1511 C   0  0  0  0  0  0  0  0  0  0  0  0
  -16.8438  -41.8430   -5.2400 O   0  0  0  0  0  0  0  0  0  0  0  0
  -17.3527  -41.2413   -7.3328 N   0  0  0  0  0  0  0  0  0  0  0  0
  -17.8476  -40.1354   -8.1674 C   0  0  1  0  0  0  0  0  0  0  0  0
  -18.4715  -39.0426   -7.4328 C   0  0  0  0  0  0  0  0  0  0  0  0
  -19.7865  -38.5090   -7.8833 C   0  0  2  0  0  0  0  0  0  0  0  0
  -20.3312  -38.9198   -9.1843 C   0  0  0  0  0  0  0  0  0  0  0  0
  -19.8348  -36.9586   -7.8246 C   0  0  0  0  0  0  0  0  0  0  0  0
  -20.9013  -36.5418   -6.8572 C   0  0  0  0  0  0  0  0  0  0  0  0
  -22.2136  -37.2216   -7.0051 C   0  0  0  0  0  0  0  0  0  0  0  0
  -22.6826  -37.8095   -5.6811 C   0  0  0  0  0  0  0  0  0  0  0  0
  -23.9095  -38.6464   -5.8449 C   0  0  0  0  0  0  0  0  0  0  0  0
  -23.6865  -40.0656   -6.2482 C   0  0  0  0  0  0  0  0  0  0  0  0
  -23.5897  -40.9119   -5.0108 C   0  0  0  0  0  0  0  0  0  0  0  0
  -22.8704  -42.1600   -5.1876 N   0  0  0  0  0  0  0  0  0  0  0  0
  -16.6151  -39.5728   -8.9608 C   0  0  2  0  0  0  0  0  0  0  0  0
  -17.2644  -38.9646  -10.0693 O   0  0  0  0  0  0  0  0  0  0  0  0
  -15.6509  -40.5975   -9.3443 C   0  0  0  0  0  0  0  0  0  0  0  0
  -14.3204  -40.3906   -9.0254 N   0  0  0  0  0  0  0  0  0  0  0  0
  -13.2273  -40.3380   -9.8761 C   0  0  0  0  0  0  0  0  0  0  0  0
  -12.7436  -41.8370  -10.0546 C   0  0  0  0  0  0  0  0  0  0  0  0
  -12.1926  -41.6530   -8.7679 O   0  0  0  0  0  0  0  0  0  0  0  0
  -11.8479  -40.3617   -9.2217 C   0  0  0  0  0  0  0  0  0  0  0  0
  -13.2501  -39.7397  -11.2084 C   0  0  0  0  0  0  0  0  0  0  0  0
  -13.3034  -38.3458  -11.3606 C   0  0  0  0  0  0  0  0  0  0  0  0
  -13.3766  -37.7080  -12.5608 C   0  0  0  0  0  0  0  0  0  0  0  0
  -13.4007  -38.4452  -13.7169 C   0  0  0  0  0  0  0  0  0  0  0  0
  -13.3507  -39.8200  -13.6304 C   0  0  0  0  0  0  0  0  0  0  0  0
  -13.2776  -40.4345  -12.3940 C   0  0  0  0  0  0  0  0  0  0  0  0
  -13.4465  -36.2223  -12.6818 C   0  0  0  0  0  0  0  0  0  0  0  0
  -14.7095  -35.6762  -12.0776 C   0  0  0  0  0  0  0  0  0  0  0  0
  -13.4608  -35.8220  -14.1600 C   0  0  0  0  0  0  0  0  0  0  0  0
  -12.2245  -35.5857  -12.0617 C   0  0  0  0  0  0  0  0  0  0  0  0
  1  2  1  0
  2  3  1  0
  3  4  1  0
  4  5  2  0
  5  6  1  0
  6  7  2  0
  7  8  1  0
  8  9  2  0
  8 10  1  0
 10 11  2  0
 10 12  1  0
 12 13  1  0
 13 14  1  1
 14 15  1  0
 15 16  1  6
 15 17  1  0
 17 18  1  0
 18 19  1  0
 19 20  1  0
 20 21  1  0
 21 22  1  0
 22 23  1  0
 23 24  1  0
 13 25  1  0
 25 26  1  6
 25 27  1  0
 27 28  1  0
 28 29  1  0
 29 30  1  0
 30 31  1  0
 31 32  1  0
 29 33  1  0
 33 34  2  0
 34 35  1  0
 35 36  2  0
 36 37  1  0
 37 38  2  0
 35 39  1  0
 39 40  1  0
 39 41  1  0
 39 42  1  0
  9  4  1  0
 24  6  1  0
 32 29  1  0
 38 33  1  0
M  END
$$$$
