
     RDKit          3D

 42 45  0  0  0  0  0  0  0  0999 V2000
  -22.4200  -37.5791  -14.4441 C   0  0  0  0  0  0  0  0  0  0  0  0
  -21.6312  -37.9034  -13.3563 O   0  0  0  0  0  0  0  0  0  0  0  0
  -22.3363  -37.8833  -12.1594 C   0  0  0  0  0  0  0  0  0  0  0  0
  -21.6227  -38.7371  -11.1547 C   0  0  0  0  0  0  0  0  0  0  0  0
  -22.2573  -39.7360  -10.4851 C   0  0  0  0  0  0  0  0  0  0  0  0
  -21.6020  -40.5534   -9.5234 C   0  0  0  0  0  0  0  0  0  0  0  0
  -20.2732  -40.3321   -9.2492 C   0  0  0  0  0  0  0  0  0  0  0  0
  -19.5783  -39.3304   -9.9028 C   0  0  0  0  0  0  0  0  0  0  0  0
  -20.3069  -38.5558  -10.8539 C   0  0  0  0  0  0  0  0  0  0  0  0
  -18.1520  -38.9244   -9.8015 C   0  0  0  0  0  0  0  0  0  0  0  0
  -17.6465  -38.5894  -10.9919 O   0  0  0  0  0  0  0  0  0  0  0  0
  -17.2078  -38.7990   -8.8091 N   0  0  0  0  0  0  0  0  0  0  0  0
  -16.7568  -39.7373   -7.7695 C   0  0  1  0  0  0  0  0  0  0  0  0
  -16.7780  -41.1415   -8.1577 C   0  0  0  0  0  0  0  0  0  0  0  0
  -17.3883  -42.1482   -7.2461 C   0  0  2  0  0  0  0  0  0  0  0  0
  -17.7501  -41.7635   -5.8753 C   0  0  0  0  0  0  0  0  0  0  0  0
  -16.5378  -43.4438   -7.1592 C   0  0  0  0  0  0  0  0  0  0  0  0
  -17.3512  -44.5944   -7.6703 C   0  0  0  0  0  0  0  0  0  0  0  0
  -18.7355  -44.6964   -7.1415 C   0  0  0  0  0  0  0  0  0  0  0  0
  -19.7502  -44.8123   -8.2709 C   0  0  0  0  0  0  0  0  0  0  0  0
  -21.1556  -44.7381   -7.7689 C   0  0  0  0  0  0  0  0  0  0  0  0
  -21.7137  -43.3670   -7.5815 C   0  0  0  0  0  0  0  0  0  0  0  0
  -22.4175  -42.9534   -8.8426 C   0  0  0  0  0  0  0  0  0  0  0  0
  -22.5417  -41.5186   -9.0220 N   0  0  0  0  0  0  0  0  0  0  0  0
  -15.2846  -39.3372   -7.3984 C   0  0  2  0  0  0  0  0  0  0  0  0
  -15.4316  -37.9397   -7.1857 O   0  0  0  0  0  0  0  0  0  0  0  0
  -14.3118  -39.6670   -8.4338 C   0  0  0  0  0  0  0  0  0  0  0  0
  -14.1671  -38.7891   -9.4935 N   0  0  0  0  0  0  0  0  0  0  0  0
  -14.6689  -38.9003  -10.7808 C   0  0  0  0  0  0  0  0  0  0  0  0
  -16.0989  -39.5683  -10.6331 C   0  0  0  0  0  0  0  0  0  0  0  0
  -15.3579  -40.7551  -10.4443 O   0  0  0  0  0  0  0  0  0  0  0  0
  -14.5146  -40.2585  -11.4614 C   0  0  0  0  0  0  0  0  0  0  0  0
  -14.8195  -37.7790  -11.7046 C   0  0  0  0  0  0  0  0  0  0  0  0
  -15.1167  -36.4955  -11.2219 C   0  0  0  0  0  0  0  0  0  0  0  0
  -15.3214  -35.4072  -12.0133 C   0  0  0  0  0  0  0  0  0  0  0  0
  -15.2383  -35.5379  -13.3759 C   0  0  0  0  0  0  0  0  0  0  0  0
  -14.9488  -36.7757  -13.9090 C   0  0  0  0  0  0  0  0  0  0  0  0
  -14.7476  -37.8598  -13.0748 C   0  0  0  0  0  0  0  0  0  0  0  0
  -15.6504  -34.0598  -11.4627 C   0  0  0  0  0  0  0  0  0  0  0  0
  -16.7885  -34.1243  -10.4835 C   0  0  0  0  0  0  0  0  0  0  0  0
  -16.1004  -33.1321  -12.5951 C   0  0  0  0  0  0  0  0  0  0  0  0
  -14.4258  -33.4338  -10.8368 C   0  0  0  0  0  0  0  0  0  0  0  0
  1  2  1  0
  2  3  1  0
  3  4  1  0
  4  5  2  0
  5  6  1  0
  6  7  2  0
  7  8  1  0
  8  9  2  0
  8 10  1  0
 10 11  2  0
 10 12  1  0
 12 13  1  0
 13 14  1  6
 14 15  1  0
 15 16  1  1
 15 17  1  0
 17 18  1  0
 18 19  1  0
 19 20  1  0
 20 21  1  0
 21 22  1  0
 22 23  1  0
 23 24  1  0
 13 25  1  0
 25 26  1  6
 25 27  1  0
 27 28  1  0
 28 29  1  0
 29 30  1  0
 30 31  1  0
 31 32  1  0
 29 33  1  0
 33 34  2  0
 34 35  1  0
 35 36  2  0
 36 37  1  0
 37 38  2  0
 35 39  1  0
 39 40  1  0
 39 41  1  0
 39 42  1  0
  9  4  1  0
 24  6  1  0
 32 29  1  0
 38 33  1  0
M  END
$$$$
