
     RDKit          3D

 42 45  0  0  0  0  0  0  0  0999 V2000
  -20.6766  -33.8168  -12.0284 C   0  0  0  0  0  0  0  0  0  0  0  0
  -20.5336  -34.8417  -11.1121 O   0  0  0  0  0  0  0  0  0  0  0  0
  -21.2236  -35.9895  -11.4815 C   0  0  0  0  0  0  0  0  0  0  0  0
  -21.0144  -37.0454  -10.4379 C   0  0  0  0  0  0  0  0  0  0  0  0
  -22.0308  -37.4807   -9.6465 C   0  0  0  0  0  0  0  0  0  0  0  0
  -21.8536  -38.4758   -8.6462 C   0  0  0  0  0  0  0  0  0  0  0  0
  -20.6074  -39.0256   -8.4607 C   0  0  0  0  0  0  0  0  0  0  0  0
  -19.5380  -38.6210   -9.2395 C   0  0  0  0  0  0  0  0  0  0  0  0
  -19.7985  -37.6196  -10.2215 C   0  0  0  0  0  0  0  0  0  0  0  0
  -18.1248  -39.0817   -9.2481 C   0  0  0  0  0  0  0  0  0  0  0  0
  -17.6330  -39.1482  -10.4884 O   0  0  0  0  0  0  0  0  0  0  0  0
  -17.1820  -39.4589   -8.3203 N   0  0  0  0  0  0  0  0  0  0  0  0
  -17.2333  -40.4353   -7.2209 C   0  0  1  0  0  0  0  0  0  0  0  0
  -18.0679  -41.6025   -7.4739 C   0  0  0  0  0  0  0  0  0  0  0  0
  -19.0459  -42.0457   -6.4424 C   0  0  2  0  0  0  0  0  0  0  0  0
  -19.0019  -41.4565   -5.0975 C   0  0  0  0  0  0  0  0  0  0  0  0
  -19.0555  -43.5891   -6.2767 C   0  0  0  0  0  0  0  0  0  0  0  0
  -20.4150  -44.1081   -6.6361 C   0  0  0  0  0  0  0  0  0  0  0  0
  -21.5652  -43.3887   -6.0316 C   0  0  0  0  0  0  0  0  0  0  0  0
  -22.5739  -42.9708   -7.0930 C   0  0  0  0  0  0  0  0  0  0  0  0
  -23.6462  -42.0953   -6.5307 C   0  0  0  0  0  0  0  0  0  0  0  0
  -23.3274  -40.6401   -6.4453 C   0  0  0  0  0  0  0  0  0  0  0  0
  -23.7972  -39.9661   -7.7030 C   0  0  0  0  0  0  0  0  0  0  0  0
  -23.1191  -38.7203   -8.0100 N   0  0  0  0  0  0  0  0  0  0  0  0
  -15.7601  -40.9131   -6.9631 C   0  0  2  0  0  0  0  0  0  0  0  0
  -15.8007  -41.1660   -5.5650 O   0  0  0  0  0  0  0  0  0  0  0  0
  -14.7526  -39.9305   -7.3456 C   0  0  0  0  0  0  0  0  0  0  0  0
  -14.0165  -40.1668   -8.4934 N   0  0  0  0  0  0  0  0  0  0  0  0
  -13.5550  -39.2512   -9.4261 C   0  0  0  0  0  0  0  0  0  0  0  0
  -12.2462  -39.8907  -10.0514 C   0  0  0  0  0  0  0  0  0  0  0  0
  -11.6500  -39.4828   -8.8385 O   0  0  0  0  0  0  0  0  0  0  0  0
  -12.4347  -38.3175   -8.9735 C   0  0  0  0  0  0  0  0  0  0  0  0
  -14.3497  -38.7404  -10.5400 C   0  0  0  0  0  0  0  0  0  0  0  0
  -14.5412  -37.3599  -10.7023 C   0  0  0  0  0  0  0  0  0  0  0  0
  -15.3050  -36.8016  -11.6808 C   0  0  0  0  0  0  0  0  0  0  0  0
  -15.9425  -37.6121  -12.5848 C   0  0  0  0  0  0  0  0  0  0  0  0
  -15.7916  -38.9779  -12.4759 C   0  0  0  0  0  0  0  0  0  0  0  0
  -15.0085  -39.5105  -11.4685 C   0  0  0  0  0  0  0  0  0  0  0  0
  -15.4967  -35.3275  -11.8122 C   0  0  0  0  0  0  0  0  0  0  0  0
  -14.6296  -34.7506  -12.8955 C   0  0  0  0  0  0  0  0  0  0  0  0
  -15.0885  -34.6329  -10.5097 C   0  0  0  0  0  0  0  0  0  0  0  0
  -16.9538  -35.0054  -12.0489 C   0  0  0  0  0  0  0  0  0  0  0  0
  1  2  1  0
  2  3  1  0
  3  4  1  0
  4  5  2  0
  5  6  1  0
  6  7  2  0
  7  8  1  0
  8  9  2  0
  8 10  1  0
 10 11  2  0
 10 12  1  0
 12 13  1  0
 13 14  1  6
 14 15  1  0
 15 16  1  1
 15 17  1  0
 17 18  1  0
 18 19  1  0
 19 20  1  0
 20 21  1  0
 21 22  1  0
 22 23  1  0
 23 24  1  0
 13 25  1  0
 25 26  1  1
 25 27  1  0
 27 28  1  0
 28 29  1  0
 29 30  1  0
 30 31  1  0
 31 32  1  0
 29 33  1  0
 33 34  2  0
 34 35  1  0
 35 36  2  0
 36 37  1  0
 37 38  2  0
 35 39  1  0
 39 40  1  0
 39 41  1  0
 39 42  1  0
  9  4  1  0
 24  6  1  0
 32 29  1  0
 38 33  1  0
M  END
$$$$
