
     RDKit          3D

 42 45  0  0  0  0  0  0  0  0999 V2000
  -17.1468  -33.5909  -12.4411 C   0  0  0  0  0  0  0  0  0  0  0  0
  -18.0510  -34.1908  -13.2973 O   0  0  0  0  0  0  0  0  0  0  0  0
  -17.8334  -35.5562  -13.4336 C   0  0  0  0  0  0  0  0  0  0  0  0
  -18.1961  -36.2416  -12.1505 C   0  0  0  0  0  0  0  0  0  0  0  0
  -19.4080  -36.0615  -11.5608 C   0  0  0  0  0  0  0  0  0  0  0  0
  -19.7706  -36.6959  -10.3408 C   0  0  0  0  0  0  0  0  0  0  0  0
  -18.8660  -37.5255   -9.7218 C   0  0  0  0  0  0  0  0  0  0  0  0
  -17.6193  -37.7460  -10.2790 C   0  0  0  0  0  0  0  0  0  0  0  0
  -17.3331  -37.0737  -11.5043 C   0  0  0  0  0  0  0  0  0  0  0  0
  -16.4993  -38.6094   -9.8211 C   0  0  0  0  0  0  0  0  0  0  0  0
  -15.8885  -39.2128  -10.8447 O   0  0  0  0  0  0  0  0  0  0  0  0
  -15.9185  -38.9562   -8.6234 N   0  0  0  0  0  0  0  0  0  0  0  0
  -16.4979  -39.4703   -7.3726 C   0  0  1  0  0  0  0  0  0  0  0  0
  -17.6622  -40.3297   -7.5422 C   0  0  0  0  0  0  0  0  0  0  0  0
  -18.8780  -40.0938   -6.7157 C   0  0  2  0  0  0  0  0  0  0  0  0
  -18.8180  -39.1597   -5.5835 C   0  0  0  0  0  0  0  0  0  0  0  0
  -19.4925  -41.4208   -6.1950 C   0  0  0  0  0  0  0  0  0  0  0  0
  -20.8768  -41.5666   -6.7511 C   0  0  0  0  0  0  0  0  0  0  0  0
  -21.7483  -40.3686   -6.6455 C   0  0  0  0  0  0  0  0  0  0  0  0
  -22.3540  -40.0064   -7.9948 C   0  0  0  0  0  0  0  0  0  0  0  0
  -23.0892  -38.7065   -7.9462 C   0  0  0  0  0  0  0  0  0  0  0  0
  -22.2629  -37.4781   -8.1324 C   0  0  0  0  0  0  0  0  0  0  0  0
  -22.2500  -37.1188   -9.5910 C   0  0  0  0  0  0  0  0  0  0  0  0
  -21.1151  -36.3145  -10.0049 N   0  0  0  0  0  0  0  0  0  0  0  0
  -15.3696  -40.2849   -6.6456 C   0  0  2  0  0  0  0  0  0  0  0  0
  -15.2978  -39.5955   -5.4048 O   0  0  0  0  0  0  0  0  0  0  0  0
  -14.1049  -40.3055   -7.3715 C   0  0  0  0  0  0  0  0  0  0  0  0
  -14.1479  -40.2694   -8.7542 N   0  0  0  0  0  0  0  0  0  0  0  0
  -13.1030  -40.0808   -9.6453 C   0  0  0  0  0  0  0  0  0  0  0  0
  -12.3840  -41.4876   -9.7752 C   0  0  0  0  0  0  0  0  0  0  0  0
  -11.8347  -41.1531   -8.5184 O   0  0  0  0  0  0  0  0  0  0  0  0
  -11.7205  -39.8467   -9.0405 C   0  0  0  0  0  0  0  0  0  0  0  0
  -13.2618  -39.5604  -11.0007 C   0  0  0  0  0  0  0  0  0  0  0  0
  -13.0213  -38.2054  -11.2745 C   0  0  0  0  0  0  0  0  0  0  0  0
  -13.1916  -37.6280  -12.4952 C   0  0  0  0  0  0  0  0  0  0  0  0
  -13.6245  -38.3916  -13.5490 C   0  0  0  0  0  0  0  0  0  0  0  0
  -13.8773  -39.7305  -13.3407 C   0  0  0  0  0  0  0  0  0  0  0  0
  -13.6942  -40.2835  -12.0867 C   0  0  0  0  0  0  0  0  0  0  0  0
  -12.9392  -36.1784  -12.7442 C   0  0  0  0  0  0  0  0  0  0  0  0
  -11.5411  -35.7854  -12.3582 C   0  0  0  0  0  0  0  0  0  0  0  0
  -13.8837  -35.3322  -11.8855 C   0  0  0  0  0  0  0  0  0  0  0  0
  -13.2246  -35.8350  -14.1877 C   0  0  0  0  0  0  0  0  0  0  0  0
  1  2  1  0
  2  3  1  0
  3  4  1  0
  4  5  2  0
  5  6  1  0
  6  7  2  0
  7  8  1  0
  8  9  2  0
  8 10  1  0
 10 11  2  0
 10 12  1  0
 12 13  1  0
 13 14  1  6
 14 15  1  0
 15 16  1  1
 15 17  1  0
 17 18  1  0
 18 19  1  0
 19 20  1  0
 20 21  1  0
 21 22  1  0
 22 23  1  0
 23 24  1  0
 13 25  1  0
 25 26  1  1
 25 27  1  0
 27 28  1  0
 28 29  1  0
 29 30  1  0
 30 31  1  0
 31 32  1  0
 29 33  1  0
 33 34  2  0
 34 35  1  0
 35 36  2  0
 36 37  1  0
 37 38  2  0
 35 39  1  0
 39 40  1  0
 39 41  1  0
 39 42  1  0
  9  4  1  0
 24  6  1  0
 32 29  1  0
 38 33  1  0
M  END
$$$$
