
     RDKit          3D

 42 45  0  0  0  0  0  0  0  0999 V2000
  -16.6209  -47.8411  -10.0704 C   0  0  0  0  0  0  0  0  0  0  0  0
  -17.5023  -47.7023   -9.0147 O   0  0  0  0  0  0  0  0  0  0  0  0
  -18.7952  -47.4120   -9.4322 C   0  0  0  0  0  0  0  0  0  0  0  0
  -19.2099  -46.0890   -8.8617 C   0  0  0  0  0  0  0  0  0  0  0  0
  -20.5142  -45.7923   -8.6176 C   0  0  0  0  0  0  0  0  0  0  0  0
  -20.9307  -44.5418   -8.0835 C   0  0  0  0  0  0  0  0  0  0  0  0
  -19.9850  -43.5850   -7.8009 C   0  0  0  0  0  0  0  0  0  0  0  0
  -18.6434  -43.8346   -8.0280 C   0  0  0  0  0  0  0  0  0  0  0  0
  -18.3076  -45.1133   -8.5640 C   0  0  0  0  0  0  0  0  0  0  0  0
  -17.4503  -42.9837   -7.7786 C   0  0  0  0  0  0  0  0  0  0  0  0
  -16.4158  -43.7003   -7.3302 O   0  0  0  0  0  0  0  0  0  0  0  0
  -17.1216  -41.6524   -7.8859 N   0  0  0  0  0  0  0  0  0  0  0  0
  -17.7835  -40.4415   -7.3760 C   0  0  1  0  0  0  0  0  0  0  0  0
  -18.4687  -40.6062   -6.1008 C   0  0  0  0  0  0  0  0  0  0  0  0
  -19.8592  -40.0982   -5.9411 C   0  0  2  0  0  0  0  0  0  0  0  0
  -20.4423  -39.2363   -6.9780 C   0  0  0  0  0  0  0  0  0  0  0  0
  -20.0656  -39.3911   -4.5747 C   0  0  0  0  0  0  0  0  0  0  0  0
  -21.1038  -40.1379   -3.7929 C   0  0  0  0  0  0  0  0  0  0  0  0
  -22.3446  -40.4881   -4.5305 C   0  0  0  0  0  0  0  0  0  0  0  0
  -22.6612  -41.9722   -4.4040 C   0  0  0  0  0  0  0  0  0  0  0  0
  -23.8018  -42.3767   -5.2802 C   0  0  0  0  0  0  0  0  0  0  0  0
  -23.4585  -42.7025   -6.6953 C   0  0  0  0  0  0  0  0  0  0  0  0
  -23.1923  -44.1771   -6.8026 C   0  0  0  0  0  0  0  0  0  0  0  0
  -22.3595  -44.5601   -7.9277 N   0  0  0  0  0  0  0  0  0  0  0  0
  -16.6717  -39.3446   -7.2149 C   0  0  2  0  0  0  0  0  0  0  0  0
  -17.4644  -38.1969   -6.9420 O   0  0  0  0  0  0  0  0  0  0  0  0
  -15.8231  -39.1968   -8.3917 C   0  0  0  0  0  0  0  0  0  0  0  0
  -14.7231  -40.0281   -8.5089 N   0  0  0  0  0  0  0  0  0  0  0  0
  -13.8463  -40.1538   -9.5751 C   0  0  0  0  0  0  0  0  0  0  0  0
  -13.7743  -41.7042   -9.8976 C   0  0  0  0  0  0  0  0  0  0  0  0
  -12.9440  -41.7489   -8.7567 O   0  0  0  0  0  0  0  0  0  0  0  0
  -12.4068  -40.5353   -9.2372 C   0  0  0  0  0  0  0  0  0  0  0  0
  -14.0006  -39.4629  -10.8527 C   0  0  0  0  0  0  0  0  0  0  0  0
  -13.8006  -38.0768  -10.9398 C   0  0  0  0  0  0  0  0  0  0  0  0
  -13.9705  -37.3478  -12.0766 C   0  0  0  0  0  0  0  0  0  0  0  0
  -14.3611  -37.9773  -13.2306 C   0  0  0  0  0  0  0  0  0  0  0  0
  -14.5729  -39.3392  -13.2064 C   0  0  0  0  0  0  0  0  0  0  0  0
  -14.3916  -40.0481  -12.0333 C   0  0  0  0  0  0  0  0  0  0  0  0
  -13.7621  -35.8709  -12.1263 C   0  0  0  0  0  0  0  0  0  0  0  0
  -12.6975  -35.4289  -11.1623 C   0  0  0  0  0  0  0  0  0  0  0  0
  -15.0498  -35.1510  -11.7153 C   0  0  0  0  0  0  0  0  0  0  0  0
  -13.4393  -35.4323  -13.5358 C   0  0  0  0  0  0  0  0  0  0  0  0
  1  2  1  0
  2  3  1  0
  3  4  1  0
  4  5  2  0
  5  6  1  0
  6  7  2  0
  7  8  1  0
  8  9  2  0
  8 10  1  0
 10 11  2  0
 10 12  1  0
 12 13  1  0
 13 14  1  1
 14 15  1  0
 15 16  1  6
 15 17  1  0
 17 18  1  0
 18 19  1  0
 19 20  1  0
 20 21  1  0
 21 22  1  0
 22 23  1  0
 23 24  1  0
 13 25  1  0
 25 26  1  6
 25 27  1  0
 27 28  1  0
 28 29  1  0
 29 30  1  0
 30 31  1  0
 31 32  1  0
 29 33  1  0
 33 34  2  0
 34 35  1  0
 35 36  2  0
 36 37  1  0
 37 38  2  0
 35 39  1  0
 39 40  1  0
 39 41  1  0
 39 42  1  0
  9  4  1  0
 24  6  1  0
 32 29  1  0
 38 33  1  0
M  END
$$$$
