
     RDKit          3D

 42 45  0  0  0  0  0  0  0  0999 V2000
  -18.3340  -48.8189   -7.4423 C   0  0  0  0  0  0  0  0  0  0  0  0
  -17.5653  -47.9406   -6.7019 O   0  0  0  0  0  0  0  0  0  0  0  0
  -18.2883  -47.3170   -5.6926 C   0  0  0  0  0  0  0  0  0  0  0  0
  -18.8526  -46.0304   -6.2159 C   0  0  0  0  0  0  0  0  0  0  0  0
  -20.0793  -45.5812   -5.8385 C   0  0  0  0  0  0  0  0  0  0  0  0
  -20.6369  -44.3678   -6.3273 C   0  0  0  0  0  0  0  0  0  0  0  0
  -19.9165  -43.6107   -7.2204 C   0  0  0  0  0  0  0  0  0  0  0  0
  -18.6623  -44.0196   -7.6367 C   0  0  0  0  0  0  0  0  0  0  0  0
  -18.1735  -45.2474   -7.0992 C   0  0  0  0  0  0  0  0  0  0  0  0
  -17.6936  -43.3680   -8.5568 C   0  0  0  0  0  0  0  0  0  0  0  0
  -16.4342  -43.5160   -8.1361 O   0  0  0  0  0  0  0  0  0  0  0  0
  -17.7432  -42.6514   -9.7299 N   0  0  0  0  0  0  0  0  0  0  0  0
  -18.5264  -41.4672  -10.1156 C   0  0  1  0  0  0  0  0  0  0  0  0
  -18.7922  -40.5272   -9.0345 C   0  0  0  0  0  0  0  0  0  0  0  0
  -20.1734  -40.0094   -8.8321 C   0  0  2  0  0  0  0  0  0  0  0  0
  -21.2010  -40.2602   -9.8514 C   0  0  0  0  0  0  0  0  0  0  0  0
  -20.1836  -38.4884   -8.5222 C   0  0  0  0  0  0  0  0  0  0  0  0
  -20.7641  -38.2744   -7.1569 C   0  0  0  0  0  0  0  0  0  0  0  0
  -22.0282  -38.9987   -6.8681 C   0  0  0  0  0  0  0  0  0  0  0  0
  -21.9246  -39.7949   -5.5743 C   0  0  0  0  0  0  0  0  0  0  0  0
  -23.1182  -40.6673   -5.3581 C   0  0  0  0  0  0  0  0  0  0  0  0
  -23.0871  -41.9997   -6.0292 C   0  0  0  0  0  0  0  0  0  0  0  0
  -22.5029  -43.0071   -5.0802 C   0  0  0  0  0  0  0  0  0  0  0  0
  -21.9251  -44.1749   -5.7196 N   0  0  0  0  0  0  0  0  0  0  0  0
  -17.7173  -40.7289  -11.2404 C   0  0  2  0  0  0  0  0  0  0  0  0
  -18.4327  -41.1381  -12.3984 O   0  0  0  0  0  0  0  0  0  0  0  0
  -16.3044  -41.0886  -11.2745 C   0  0  0  0  0  0  0  0  0  0  0  0
  -15.4166  -40.1854  -11.8322 N   0  0  0  0  0  0  0  0  0  0  0  0
  -14.6778  -39.1984  -11.1987 C   0  0  0  0  0  0  0  0  0  0  0  0
  -13.2944  -39.8706  -10.8150 C   0  0  0  0  0  0  0  0  0  0  0  0
  -14.0439  -40.4652   -9.7768 O   0  0  0  0  0  0  0  0  0  0  0  0
  -14.6840  -39.2117   -9.6717 C   0  0  0  0  0  0  0  0  0  0  0  0
  -14.3673  -37.8981  -11.7870 C   0  0  0  0  0  0  0  0  0  0  0  0
  -13.9615  -36.8289  -10.9740 C   0  0  0  0  0  0  0  0  0  0  0  0
  -13.7004  -35.5740  -11.4318 C   0  0  0  0  0  0  0  0  0  0  0  0
  -13.8312  -35.3023  -12.7696 C   0  0  0  0  0  0  0  0  0  0  0  0
  -14.2269  -36.3139  -13.6182 C   0  0  0  0  0  0  0  0  0  0  0  0
  -14.4848  -37.5769  -13.1182 C   0  0  0  0  0  0  0  0  0  0  0  0
  -13.2847  -34.4576  -10.5329 C   0  0  0  0  0  0  0  0  0  0  0  0
  -13.6682  -33.1192  -11.0982 C   0  0  0  0  0  0  0  0  0  0  0  0
  -11.7603  -34.4495  -10.3863 C   0  0  0  0  0  0  0  0  0  0  0  0
  -13.8622  -34.6526   -9.1503 C   0  0  0  0  0  0  0  0  0  0  0  0
  1  2  1  0
  2  3  1  0
  3  4  1  0
  4  5  2  0
  5  6  1  0
  6  7  2  0
  7  8  1  0
  8  9  2  0
  8 10  1  0
 10 11  2  0
 10 12  1  0
 12 13  1  0
 13 14  1  1
 14 15  1  0
 15 16  1  6
 15 17  1  0
 17 18  1  0
 18 19  1  0
 19 20  1  0
 20 21  1  0
 21 22  1  0
 22 23  1  0
 23 24  1  0
 13 25  1  0
 25 26  1  6
 25 27  1  0
 27 28  1  0
 28 29  1  0
 29 30  1  0
 30 31  1  0
 31 32  1  0
 29 33  1  0
 33 34  2  0
 34 35  1  0
 35 36  2  0
 36 37  1  0
 37 38  2  0
 35 39  1  0
 39 40  1  0
 39 41  1  0
 39 42  1  0
  9  4  1  0
 24  6  1  0
 32 29  1  0
 38 33  1  0
M  END
$$$$
