
     RDKit          3D

 42 45  0  0  0  0  0  0  0  0999 V2000
  -19.9607  -37.4613   -1.7492 C   0  0  0  0  0  0  0  0  0  0  0  0
  -20.4037  -38.6177   -2.3634 O   0  0  0  0  0  0  0  0  0  0  0  0
  -21.4288  -38.3822   -3.2710 C   0  0  0  0  0  0  0  0  0  0  0  0
  -21.2888  -39.3277   -4.4260 C   0  0  0  0  0  0  0  0  0  0  0  0
  -22.1646  -40.3485   -4.6252 C   0  0  0  0  0  0  0  0  0  0  0  0
  -22.0471  -41.2610   -5.7096 C   0  0  0  0  0  0  0  0  0  0  0  0
  -21.0080  -41.1166   -6.5979 C   0  0  0  0  0  0  0  0  0  0  0  0
  -20.0890  -40.0941   -6.4438 C   0  0  0  0  0  0  0  0  0  0  0  0
  -20.2773  -39.2207   -5.3316 C   0  0  0  0  0  0  0  0  0  0  0  0
  -18.9162  -39.7202   -7.2771 C   0  0  0  0  0  0  0  0  0  0  0  0
  -18.7804  -38.3948   -7.3749 O   0  0  0  0  0  0  0  0  0  0  0  0
  -17.9282  -40.3726   -7.9772 N   0  0  0  0  0  0  0  0  0  0  0  0
  -17.9929  -41.4394   -8.9882 C   0  0  1  0  0  0  0  0  0  0  0  0
  -19.1655  -41.3974   -9.8520 C   0  0  0  0  0  0  0  0  0  0  0  0
  -19.9499  -42.6404  -10.0895 C   0  0  2  0  0  0  0  0  0  0  0  0
  -19.4127  -43.9348   -9.6492 C   0  0  0  0  0  0  0  0  0  0  0  0
  -20.3664  -42.7887  -11.5775 C   0  0  0  0  0  0  0  0  0  0  0  0
  -21.8628  -42.7840  -11.6661 C   0  0  0  0  0  0  0  0  0  0  0  0
  -22.5727  -43.6691  -10.7077 C   0  0  0  0  0  0  0  0  0  0  0  0
  -23.6423  -42.9048   -9.9393 C   0  0  0  0  0  0  0  0  0  0  0  0
  -24.2449  -43.7307   -8.8497 C   0  0  0  0  0  0  0  0  0  0  0  0
  -23.5069  -43.7453   -7.5529 C   0  0  0  0  0  0  0  0  0  0  0  0
  -24.0508  -42.6559   -6.6731 C   0  0  0  0  0  0  0  0  0  0  0  0
  -23.1358  -42.1973   -5.6442 N   0  0  0  0  0  0  0  0  0  0  0  0
  -16.7051  -41.3076   -9.8768 C   0  0  2  0  0  0  0  0  0  0  0  0
  -15.6864  -41.4543   -8.8966 O   0  0  0  0  0  0  0  0  0  0  0  0
  -16.6281  -40.0489  -10.6093 C   0  0  0  0  0  0  0  0  0  0  0  0
  -15.5674  -39.2025  -10.3382 N   0  0  0  0  0  0  0  0  0  0  0  0
  -14.2447  -39.3223  -10.7352 C   0  0  0  0  0  0  0  0  0  0  0  0
  -14.2608  -40.2400  -12.0277 C   0  0  0  0  0  0  0  0  0  0  0  0
  -14.4415  -41.2866  -11.0976 O   0  0  0  0  0  0  0  0  0  0  0  0
  -13.5104  -40.5882  -10.2991 C   0  0  0  0  0  0  0  0  0  0  0  0
  -13.3690  -38.1913  -11.0307 C   0  0  0  0  0  0  0  0  0  0  0  0
  -13.8355  -36.8755  -10.8896 C   0  0  0  0  0  0  0  0  0  0  0  0
  -13.1048  -35.7669  -11.1889 C   0  0  0  0  0  0  0  0  0  0  0  0
  -11.8249  -35.9088  -11.6605 C   0  0  0  0  0  0  0  0  0  0  0  0
  -11.3115  -37.1780  -11.8199 C   0  0  0  0  0  0  0  0  0  0  0  0
  -12.0828  -38.2820  -11.5066 C   0  0  0  0  0  0  0  0  0  0  0  0
  -13.6414  -34.3824  -11.0394 C   0  0  0  0  0  0  0  0  0  0  0  0
  -12.9417  -33.6328   -9.9409 C   0  0  0  0  0  0  0  0  0  0  0  0
  -15.1228  -34.4388  -10.6550 C   0  0  0  0  0  0  0  0  0  0  0  0
  -13.5516  -33.6387  -12.3517 C   0  0  0  0  0  0  0  0  0  0  0  0
  1  2  1  0
  2  3  1  0
  3  4  1  0
  4  5  2  0
  5  6  1  0
  6  7  2  0
  7  8  1  0
  8  9  2  0
  8 10  1  0
 10 11  2  0
 10 12  1  0
 12 13  1  0
 13 14  1  6
 14 15  1  0
 15 16  1  6
 15 17  1  0
 17 18  1  0
 18 19  1  0
 19 20  1  0
 20 21  1  0
 21 22  1  0
 22 23  1  0
 23 24  1  0
 13 25  1  0
 25 26  1  1
 25 27  1  0
 27 28  1  0
 28 29  1  0
 29 30  1  0
 30 31  1  0
 31 32  1  0
 29 33  1  0
 33 34  2  0
 34 35  1  0
 35 36  2  0
 36 37  1  0
 37 38  2  0
 35 39  1  0
 39 40  1  0
 39 41  1  0
 39 42  1  0
  9  4  1  0
 24  6  1  0
 32 29  1  0
 38 33  1  0
M  END
$$$$
