
     RDKit          3D

 42 45  0  0  0  0  0  0  0  0999 V2000
  -16.7177  -47.6098   -9.7996 C   0  0  0  0  0  0  0  0  0  0  0  0
  -17.4156  -46.5148  -10.2737 O   0  0  0  0  0  0  0  0  0  0  0  0
  -18.7747  -46.5850   -9.9943 C   0  0  0  0  0  0  0  0  0  0  0  0
  -19.1987  -45.3262   -9.2991 C   0  0  0  0  0  0  0  0  0  0  0  0
  -20.4853  -45.1228   -8.9090 C   0  0  0  0  0  0  0  0  0  0  0  0
  -20.9108  -43.9341   -8.2546 C   0  0  0  0  0  0  0  0  0  0  0  0
  -19.9933  -42.9419   -8.0030 C   0  0  0  0  0  0  0  0  0  0  0  0
  -18.6704  -43.0972   -8.3767 C   0  0  0  0  0  0  0  0  0  0  0  0
  -18.3237  -44.3187   -9.0270 C   0  0  0  0  0  0  0  0  0  0  0  0
  -17.5049  -42.1939   -8.1895 C   0  0  0  0  0  0  0  0  0  0  0  0
  -16.3937  -42.8738   -7.8934 O   0  0  0  0  0  0  0  0  0  0  0  0
  -17.2597  -40.8413   -8.2396 N   0  0  0  0  0  0  0  0  0  0  0  0
  -17.9294  -39.7051   -7.5877 C   0  0  1  0  0  0  0  0  0  0  0  0
  -18.4718  -39.9876   -6.2652 C   0  0  0  0  0  0  0  0  0  0  0  0
  -19.8637  -39.5736   -5.9365 C   0  0  2  0  0  0  0  0  0  0  0  0
  -20.5940  -38.6862   -6.8514 C   0  0  0  0  0  0  0  0  0  0  0  0
  -19.9673  -38.9646   -4.5124 C   0  0  0  0  0  0  0  0  0  0  0  0
  -20.8796  -39.8180   -3.6840 C   0  0  0  0  0  0  0  0  0  0  0  0
  -22.1686  -40.1956   -4.3180 C   0  0  0  0  0  0  0  0  0  0  0  0
  -22.3918  -41.7008   -4.2601 C   0  0  0  0  0  0  0  0  0  0  0  0
  -23.5926  -42.1181   -5.0453 C   0  0  0  0  0  0  0  0  0  0  0  0
  -23.3782  -42.3360   -6.5057 C   0  0  0  0  0  0  0  0  0  0  0  0
  -23.0466  -43.7829   -6.7366 C   0  0  0  0  0  0  0  0  0  0  0  0
  -22.3134  -44.0466   -7.9610 N   0  0  0  0  0  0  0  0  0  0  0  0
  -16.8666  -38.5561   -7.4637 C   0  0  2  0  0  0  0  0  0  0  0  0
  -17.5200  -37.5088   -8.1682 O   0  0  0  0  0  0  0  0  0  0  0  0
  -15.5638  -38.9040   -8.0194 C   0  0  0  0  0  0  0  0  0  0  0  0
  -15.2590  -38.4556   -9.2925 N   0  0  0  0  0  0  0  0  0  0  0  0
  -15.1340  -39.1925  -10.4599 C   0  0  0  0  0  0  0  0  0  0  0  0
  -13.8918  -40.1516  -10.2369 C   0  0  0  0  0  0  0  0  0  0  0  0
  -13.1381  -38.9830  -10.4804 O   0  0  0  0  0  0  0  0  0  0  0  0
  -14.1017  -38.7020  -11.4726 C   0  0  0  0  0  0  0  0  0  0  0  0
  -16.2000  -40.0082  -11.0356 C   0  0  0  0  0  0  0  0  0  0  0  0
  -17.3400  -39.4028  -11.5859 C   0  0  0  0  0  0  0  0  0  0  0  0
  -18.3997  -40.0865  -12.0978 C   0  0  0  0  0  0  0  0  0  0  0  0
  -18.3849  -41.4578  -12.0922 C   0  0  0  0  0  0  0  0  0  0  0  0
  -17.2908  -42.1091  -11.5644 C   0  0  0  0  0  0  0  0  0  0  0  0
  -16.2321  -41.3823  -11.0519 C   0  0  0  0  0  0  0  0  0  0  0  0
  -19.6023  -39.4063  -12.6617 C   0  0  0  0  0  0  0  0  0  0  0  0
  -20.4034  -40.3309  -13.5344 C   0  0  0  0  0  0  0  0  0  0  0  0
  -19.1682  -38.2355  -13.5485 C   0  0  0  0  0  0  0  0  0  0  0  0
  -20.4505  -38.8311  -11.5515 C   0  0  0  0  0  0  0  0  0  0  0  0
  1  2  1  0
  2  3  1  0
  3  4  1  0
  4  5  2  0
  5  6  1  0
  6  7  2  0
  7  8  1  0
  8  9  2  0
  8 10  1  0
 10 11  2  0
 10 12  1  0
 12 13  1  0
 13 14  1  1
 14 15  1  0
 15 16  1  6
 15 17  1  0
 17 18  1  0
 18 19  1  0
 19 20  1  0
 20 21  1  0
 21 22  1  0
 22 23  1  0
 23 24  1  0
 13 25  1  0
 25 26  1  6
 25 27  1  0
 27 28  1  0
 28 29  1  0
 29 30  1  0
 30 31  1  0
 31 32  1  0
 29 33  1  0
 33 34  2  0
 34 35  1  0
 35 36  2  0
 36 37  1  0
 37 38  2  0
 35 39  1  0
 39 40  1  0
 39 41  1  0
 39 42  1  0
  9  4  1  0
 24  6  1  0
 32 29  1  0
 38 33  1  0
M  END
$$$$
