
     RDKit          3D

 42 45  0  0  0  0  0  0  0  0999 V2000
  -21.7108  -44.0771  -13.8423 C   0  0  0  0  0  0  0  0  0  0  0  0
  -20.4764  -44.3071  -13.2644 O   0  0  0  0  0  0  0  0  0  0  0  0
  -20.5683  -45.0039  -12.0661 C   0  0  0  0  0  0  0  0  0  0  0  0
  -20.6431  -44.0247  -10.9332 C   0  0  0  0  0  0  0  0  0  0  0  0
  -21.8329  -43.6235  -10.4116 C   0  0  0  0  0  0  0  0  0  0  0  0
  -21.9276  -42.6910   -9.3421 C   0  0  0  0  0  0  0  0  0  0  0  0
  -20.7756  -42.1648   -8.8074 C   0  0  0  0  0  0  0  0  0  0  0  0
  -19.5380  -42.5397   -9.2986 C   0  0  0  0  0  0  0  0  0  0  0  0
  -19.5284  -43.4804  -10.3711 C   0  0  0  0  0  0  0  0  0  0  0  0
  -18.1715  -42.1388   -8.8725 C   0  0  0  0  0  0  0  0  0  0  0  0
  -17.3171  -43.1648   -8.9191 O   0  0  0  0  0  0  0  0  0  0  0  0
  -17.5458  -40.9920   -8.4421 N   0  0  0  0  0  0  0  0  0  0  0  0
  -17.8890  -40.0358   -7.3780 C   0  0  1  0  0  0  0  0  0  0  0  0
  -18.5482  -40.6189   -6.2167 C   0  0  0  0  0  0  0  0  0  0  0  0
  -19.7755  -39.9788   -5.6683 C   0  0  2  0  0  0  0  0  0  0  0  0
  -20.1782  -38.6493   -6.1462 C   0  0  0  0  0  0  0  0  0  0  0  0
  -19.7632  -39.9340   -4.1167 C   0  0  0  0  0  0  0  0  0  0  0  0
  -20.9184  -40.7361   -3.5981 C   0  0  0  0  0  0  0  0  0  0  0  0
  -22.2319  -40.4720   -4.2393 C   0  0  0  0  0  0  0  0  0  0  0  0
  -22.8808  -41.7630   -4.7197 C   0  0  0  0  0  0  0  0  0  0  0  0
  -24.1145  -41.5035   -5.5216 C   0  0  0  0  0  0  0  0  0  0  0  0
  -23.9068  -41.2199   -6.9717 C   0  0  0  0  0  0  0  0  0  0  0  0
  -23.9952  -42.5104   -7.7357 C   0  0  0  0  0  0  0  0  0  0  0  0
  -23.3149  -42.5012   -9.0176 N   0  0  0  0  0  0  0  0  0  0  0  0
  -16.5473  -39.3650   -6.9142 C   0  0  2  0  0  0  0  0  0  0  0  0
  -17.0401  -38.2040   -6.2589 O   0  0  0  0  0  0  0  0  0  0  0  0
  -15.6339  -39.0678   -8.0115 C   0  0  0  0  0  0  0  0  0  0  0  0
  -14.5903  -39.9461   -8.2451 N   0  0  0  0  0  0  0  0  0  0  0  0
  -13.6625  -39.9292   -9.2748 C   0  0  0  0  0  0  0  0  0  0  0  0
  -13.6073  -41.4115   -9.8337 C   0  0  0  0  0  0  0  0  0  0  0  0
  -12.8382  -41.6583   -8.6758 O   0  0  0  0  0  0  0  0  0  0  0  0
  -12.2510  -40.4009   -8.9330 C   0  0  0  0  0  0  0  0  0  0  0  0
  -13.7358  -39.0429  -10.4334 C   0  0  0  0  0  0  0  0  0  0  0  0
  -13.2253  -37.7378  -10.3633 C   0  0  0  0  0  0  0  0  0  0  0  0
  -13.2954  -36.8318  -11.3766 C   0  0  0  0  0  0  0  0  0  0  0  0
  -13.8967  -37.1846  -12.5575 C   0  0  0  0  0  0  0  0  0  0  0  0
  -14.4171  -38.4545  -12.6857 C   0  0  0  0  0  0  0  0  0  0  0  0
  -14.3288  -39.3490  -11.6350 C   0  0  0  0  0  0  0  0  0  0  0  0
  -12.7533  -35.4464  -11.2589 C   0  0  0  0  0  0  0  0  0  0  0  0
  -12.8037  -34.7184  -12.5726 C   0  0  0  0  0  0  0  0  0  0  0  0
  -11.2797  -35.4992  -10.8450 C   0  0  0  0  0  0  0  0  0  0  0  0
  -13.4892  -34.6830  -10.1825 C   0  0  0  0  0  0  0  0  0  0  0  0
  1  2  1  0
  2  3  1  0
  3  4  1  0
  4  5  2  0
  5  6  1  0
  6  7  2  0
  7  8  1  0
  8  9  2  0
  8 10  1  0
 10 11  2  0
 10 12  1  0
 12 13  1  0
 13 14  1  1
 14 15  1  0
 15 16  1  6
 15 17  1  0
 17 18  1  0
 18 19  1  0
 19 20  1  0
 20 21  1  0
 21 22  1  0
 22 23  1  0
 23 24  1  0
 13 25  1  0
 25 26  1  6
 25 27  1  0
 27 28  1  0
 28 29  1  0
 29 30  1  0
 30 31  1  0
 31 32  1  0
 29 33  1  0
 33 34  2  0
 34 35  1  0
 35 36  2  0
 36 37  1  0
 37 38  2  0
 35 39  1  0
 39 40  1  0
 39 41  1  0
 39 42  1  0
  9  4  1  0
 24  6  1  0
 32 29  1  0
 38 33  1  0
M  END
$$$$
