
     RDKit          3D

 42 45  0  0  0  0  0  0  0  0999 V2000
  -16.6136  -48.2656   -6.3543 C   0  0  0  0  0  0  0  0  0  0  0  0
  -17.0996  -47.5228   -7.4139 O   0  0  0  0  0  0  0  0  0  0  0  0
  -18.4856  -47.5606   -7.5023 C   0  0  0  0  0  0  0  0  0  0  0  0
  -19.0211  -46.1627   -7.4212 C   0  0  0  0  0  0  0  0  0  0  0  0
  -20.3551  -45.9107   -7.3453 C   0  0  0  0  0  0  0  0  0  0  0  0
  -20.8853  -44.5930   -7.2745 C   0  0  0  0  0  0  0  0  0  0  0  0
  -20.0236  -43.5221   -7.2852 C   0  0  0  0  0  0  0  0  0  0  0  0
  -18.6566  -43.7210   -7.3591 C   0  0  0  0  0  0  0  0  0  0  0  0
  -18.2048  -45.0725   -7.4258 C   0  0  0  0  0  0  0  0  0  0  0  0
  -17.5396  -42.7403   -7.3554 C   0  0  0  0  0  0  0  0  0  0  0  0
  -16.4942  -43.1828   -6.6510 O   0  0  0  0  0  0  0  0  0  0  0  0
  -17.2897  -41.4953   -7.8841 N   0  0  0  0  0  0  0  0  0  0  0  0
  -18.0601  -40.2429   -7.8335 C   0  0  1  0  0  0  0  0  0  0  0  0
  -18.8179  -40.0366   -6.6062 C   0  0  0  0  0  0  0  0  0  0  0  0
  -20.2454  -39.6206   -6.6836 C   0  0  2  0  0  0  0  0  0  0  0  0
  -20.8109  -39.1969   -7.9715 C   0  0  0  0  0  0  0  0  0  0  0  0
  -20.5881  -38.5245   -5.6393 C   0  0  0  0  0  0  0  0  0  0  0  0
  -21.6271  -39.0568   -4.6991 C   0  0  0  0  0  0  0  0  0  0  0  0
  -22.7905  -39.7301   -5.3309 C   0  0  0  0  0  0  0  0  0  0  0  0
  -23.0200  -41.1116   -4.7330 C   0  0  0  0  0  0  0  0  0  0  0  0
  -24.0708  -41.8732   -5.4733 C   0  0  0  0  0  0  0  0  0  0  0  0
  -23.6129  -42.6151   -6.6842 C   0  0  0  0  0  0  0  0  0  0  0  0
  -23.2468  -44.0163   -6.2848 C   0  0  0  0  0  0  0  0  0  0  0  0
  -22.3173  -44.6768   -7.1826 N   0  0  0  0  0  0  0  0  0  0  0  0
  -17.0337  -39.0663   -7.9979 C   0  0  2  0  0  0  0  0  0  0  0  0
  -17.9133  -37.9704   -8.2105 O   0  0  0  0  0  0  0  0  0  0  0  0
  -16.0847  -39.2678   -9.0869 C   0  0  0  0  0  0  0  0  0  0  0  0
  -14.8679  -39.8555   -8.7888 N   0  0  0  0  0  0  0  0  0  0  0  0
  -13.7414  -39.9609   -9.5896 C   0  0  0  0  0  0  0  0  0  0  0  0
  -13.4919  -41.5140   -9.7857 C   0  0  0  0  0  0  0  0  0  0  0  0
  -12.9799  -41.4438   -8.4719 O   0  0  0  0  0  0  0  0  0  0  0  0
  -12.4152  -40.2152   -8.8766 C   0  0  0  0  0  0  0  0  0  0  0  0
  -13.6070  -39.3417  -10.9056 C   0  0  0  0  0  0  0  0  0  0  0  0
  -13.6411  -37.9455  -11.0409 C   0  0  0  0  0  0  0  0  0  0  0  0
  -13.5723  -37.2887  -12.2311 C   0  0  0  0  0  0  0  0  0  0  0  0
  -13.4609  -38.0076  -13.3936 C   0  0  0  0  0  0  0  0  0  0  0  0
  -13.4222  -39.3837  -13.3237 C   0  0  0  0  0  0  0  0  0  0  0  0
  -13.4955  -40.0177  -12.0971 C   0  0  0  0  0  0  0  0  0  0  0  0
  -13.6266  -35.8011  -12.3358 C   0  0  0  0  0  0  0  0  0  0  0  0
  -12.5634  -35.1477  -11.4986 C   0  0  0  0  0  0  0  0  0  0  0  0
  -14.9716  -35.2924  -11.8089 C   0  0  0  0  0  0  0  0  0  0  0  0
  -13.5251  -35.3713  -13.7809 C   0  0  0  0  0  0  0  0  0  0  0  0
  1  2  1  0
  2  3  1  0
  3  4  1  0
  4  5  2  0
  5  6  1  0
  6  7  2  0
  7  8  1  0
  8  9  2  0
  8 10  1  0
 10 11  2  0
 10 12  1  0
 12 13  1  0
 13 14  1  1
 14 15  1  0
 15 16  1  6
 15 17  1  0
 17 18  1  0
 18 19  1  0
 19 20  1  0
 20 21  1  0
 21 22  1  0
 22 23  1  0
 23 24  1  0
 13 25  1  0
 25 26  1  6
 25 27  1  0
 27 28  1  0
 28 29  1  0
 29 30  1  0
 30 31  1  0
 31 32  1  0
 29 33  1  0
 33 34  2  0
 34 35  1  0
 35 36  2  0
 36 37  1  0
 37 38  2  0
 35 39  1  0
 39 40  1  0
 39 41  1  0
 39 42  1  0
  9  4  1  0
 24  6  1  0
 32 29  1  0
 38 33  1  0
M  END
$$$$
