
     RDKit          3D

 42 45  0  0  0  0  0  0  0  0999 V2000
  -12.9828  -47.2601  -11.0672 C   0  0  0  0  0  0  0  0  0  0  0  0
  -13.9472  -46.4096  -11.5745 O   0  0  0  0  0  0  0  0  0  0  0  0
  -13.4568  -45.5825  -12.5773 C   0  0  0  0  0  0  0  0  0  0  0  0
  -13.2939  -44.1950  -12.0334 C   0  0  0  0  0  0  0  0  0  0  0  0
  -12.1720  -43.4625  -12.2654 C   0  0  0  0  0  0  0  0  0  0  0  0
  -11.9934  -42.1477  -11.7539 C   0  0  0  0  0  0  0  0  0  0  0  0
  -12.9879  -41.5848  -10.9897 C   0  0  0  0  0  0  0  0  0  0  0  0
  -14.1511  -42.2846  -10.7241 C   0  0  0  0  0  0  0  0  0  0  0  0
  -14.2536  -43.5968  -11.2745 C   0  0  0  0  0  0  0  0  0  0  0  0
  -15.3625  -41.8842   -9.9613 C   0  0  0  0  0  0  0  0  0  0  0  0
  -16.4811  -42.3360  -10.5353 O   0  0  0  0  0  0  0  0  0  0  0  0
  -15.6446  -41.1720   -8.8189 N   0  0  0  0  0  0  0  0  0  0  0  0
  -15.2282  -39.8312   -8.3792 C   0  0  1  0  0  0  0  0  0  0  0  0
  -15.0537  -38.8595   -9.4508 C   0  0  0  0  0  0  0  0  0  0  0  0
  -13.8233  -38.0221   -9.4922 C   0  0  2  0  0  0  0  0  0  0  0  0
  -12.9118  -38.0110   -8.3402 C   0  0  0  0  0  0  0  0  0  0  0  0
  -14.1377  -36.5457   -9.8540 C   0  0  0  0  0  0  0  0  0  0  0  0
  -13.4479  -36.2029  -11.1399 C   0  0  0  0  0  0  0  0  0  0  0  0
  -12.0197  -36.5992  -11.2362 C   0  0  0  0  0  0  0  0  0  0  0  0
  -11.7542  -37.4023  -12.5023 C   0  0  0  0  0  0  0  0  0  0  0  0
  -10.3680  -37.9591  -12.5303 C   0  0  0  0  0  0  0  0  0  0  0  0
  -10.1675  -39.2561  -11.8202 C   0  0  0  0  0  0  0  0  0  0  0  0
  -10.3595  -40.3795  -12.7989 C   0  0  0  0  0  0  0  0  0  0  0  0
  -10.7198  -41.6499  -12.1969 N   0  0  0  0  0  0  0  0  0  0  0  0
  -16.3345  -39.3069   -7.3962 C   0  0  2  0  0  0  0  0  0  0  0  0
  -15.5913  -39.1967   -6.1898 O   0  0  0  0  0  0  0  0  0  0  0  0
  -17.4870  -40.1941   -7.2883 C   0  0  0  0  0  0  0  0  0  0  0  0
  -18.3456  -40.2794   -8.3702 N   0  0  0  0  0  0  0  0  0  0  0  0
  -19.5928  -40.8807   -8.4365 C   0  0  0  0  0  0  0  0  0  0  0  0
  -19.3241  -42.4426   -8.4004 C   0  0  0  0  0  0  0  0  0  0  0  0
  -18.9545  -42.2573   -9.7503 O   0  0  0  0  0  0  0  0  0  0  0  0
  -20.0472  -41.3660   -9.8112 C   0  0  0  0  0  0  0  0  0  0  0  0
  -20.6835  -40.6176   -7.5014 C   0  0  0  0  0  0  0  0  0  0  0  0
  -21.3180  -39.3663   -7.4836 C   0  0  0  0  0  0  0  0  0  0  0  0
  -22.3071  -39.0206   -6.6148 C   0  0  0  0  0  0  0  0  0  0  0  0
  -22.7366  -39.9311   -5.6835 C   0  0  0  0  0  0  0  0  0  0  0  0
  -22.1503  -41.1782   -5.6528 C   0  0  0  0  0  0  0  0  0  0  0  0
  -21.1472  -41.4948   -6.5503 C   0  0  0  0  0  0  0  0  0  0  0  0
  -22.9482  -37.6730   -6.6171 C   0  0  0  0  0  0  0  0  0  0  0  0
  -23.6702  -37.4054   -7.9076 C   0  0  0  0  0  0  0  0  0  0  0  0
  -21.8759  -36.5878   -6.4833 C   0  0  0  0  0  0  0  0  0  0  0  0
  -23.8750  -37.5293   -5.4324 C   0  0  0  0  0  0  0  0  0  0  0  0
  1  2  1  0
  2  3  1  0
  3  4  1  0
  4  5  2  0
  5  6  1  0
  6  7  2  0
  7  8  1  0
  8  9  2  0
  8 10  1  0
 10 11  2  0
 10 12  1  0
 12 13  1  0
 13 14  1  6
 14 15  1  0
 15 16  1  1
 15 17  1  0
 17 18  1  0
 18 19  1  0
 19 20  1  0
 20 21  1  0
 21 22  1  0
 22 23  1  0
 23 24  1  0
 13 25  1  0
 25 26  1  1
 25 27  1  0
 27 28  1  0
 28 29  1  0
 29 30  1  0
 30 31  1  0
 31 32  1  0
 29 33  1  0
 33 34  2  0
 34 35  1  0
 35 36  2  0
 36 37  1  0
 37 38  2  0
 35 39  1  0
 39 40  1  0
 39 41  1  0
 39 42  1  0
  9  4  1  0
 24  6  1  0
 32 29  1  0
 38 33  1  0
M  END
$$$$
