
     RDKit          3D

 42 45  0  0  0  0  0  0  0  0999 V2000
  -16.7933  -46.0184  -12.3703 C   0  0  0  0  0  0  0  0  0  0  0  0
  -18.1329  -46.3185  -12.2092 O   0  0  0  0  0  0  0  0  0  0  0  0
  -18.4564  -46.6326  -10.8951 C   0  0  0  0  0  0  0  0  0  0  0  0
  -18.9563  -45.3995  -10.2044 C   0  0  0  0  0  0  0  0  0  0  0  0
  -20.2844  -45.1289  -10.0955 C   0  0  0  0  0  0  0  0  0  0  0  0
  -20.7805  -43.9624   -9.4509 C   0  0  0  0  0  0  0  0  0  0  0  0
  -19.8902  -43.0629   -8.9143 C   0  0  0  0  0  0  0  0  0  0  0  0
  -18.5279  -43.2895   -8.9948 C   0  0  0  0  0  0  0  0  0  0  0  0
  -18.1112  -44.4830   -9.6560 C   0  0  0  0  0  0  0  0  0  0  0  0
  -17.3870  -42.4923   -8.4730 C   0  0  0  0  0  0  0  0  0  0  0  0
  -16.4134  -43.2735   -7.9970 O   0  0  0  0  0  0  0  0  0  0  0  0
  -17.0606  -41.1619   -8.3479 N   0  0  0  0  0  0  0  0  0  0  0  0
  -17.7964  -40.0291   -7.7650 C   0  0  1  0  0  0  0  0  0  0  0  0
  -18.6423  -40.3656   -6.6273 C   0  0  0  0  0  0  0  0  0  0  0  0
  -20.0467  -39.8733   -6.5831 C   0  0  2  0  0  0  0  0  0  0  0  0
  -20.4967  -38.8693   -7.5565 C   0  0  0  0  0  0  0  0  0  0  0  0
  -20.4390  -39.3635   -5.1703 C   0  0  0  0  0  0  0  0  0  0  0  0
  -21.5636  -40.2040   -4.6453 C   0  0  0  0  0  0  0  0  0  0  0  0
  -22.6925  -40.4365   -5.5821 C   0  0  0  0  0  0  0  0  0  0  0  0
  -23.0078  -41.9209   -5.7082 C   0  0  0  0  0  0  0  0  0  0  0  0
  -24.0186  -42.1885   -6.7756 C   0  0  0  0  0  0  0  0  0  0  0  0
  -23.4882  -42.3151   -8.1645 C   0  0  0  0  0  0  0  0  0  0  0  0
  -23.1950  -43.7622   -8.4416 C   0  0  0  0  0  0  0  0  0  0  0  0
  -22.2171  -43.9903   -9.4894 N   0  0  0  0  0  0  0  0  0  0  0  0
  -16.7269  -38.9753   -7.3059 C   0  0  2  0  0  0  0  0  0  0  0  0
  -17.5657  -37.9323   -6.8277 O   0  0  0  0  0  0  0  0  0  0  0  0
  -15.8281  -38.5530   -8.3740 C   0  0  0  0  0  0  0  0  0  0  0  0
  -14.5059  -38.9559   -8.3087 N   0  0  0  0  0  0  0  0  0  0  0  0
  -13.6737  -39.3557   -9.3426 C   0  0  0  0  0  0  0  0  0  0  0  0
  -13.8464  -40.9274   -9.4557 C   0  0  0  0  0  0  0  0  0  0  0  0
  -13.0173  -40.9487   -8.3132 O   0  0  0  0  0  0  0  0  0  0  0  0
  -12.3059  -39.9074   -8.9470 C   0  0  0  0  0  0  0  0  0  0  0  0
  -13.7372  -38.8246  -10.7017 C   0  0  0  0  0  0  0  0  0  0  0  0
  -13.6563  -37.4424  -10.9291 C   0  0  0  0  0  0  0  0  0  0  0  0
  -13.7554  -36.8601  -12.1553 C   0  0  0  0  0  0  0  0  0  0  0  0
  -13.9459  -37.6462  -13.2628 C   0  0  0  0  0  0  0  0  0  0  0  0
  -14.0331  -39.0124  -13.1017 C   0  0  0  0  0  0  0  0  0  0  0  0
  -13.9290  -39.5697  -11.8407 C   0  0  0  0  0  0  0  0  0  0  0  0
  -13.6789  -35.3832  -12.3556 C   0  0  0  0  0  0  0  0  0  0  0  0
  -13.6212  -35.0242  -13.8136 C   0  0  0  0  0  0  0  0  0  0  0  0
  -12.3959  -34.8391  -11.7206 C   0  0  0  0  0  0  0  0  0  0  0  0
  -14.8382  -34.6986  -11.6697 C   0  0  0  0  0  0  0  0  0  0  0  0
  1  2  1  0
  2  3  1  0
  3  4  1  0
  4  5  2  0
  5  6  1  0
  6  7  2  0
  7  8  1  0
  8  9  2  0
  8 10  1  0
 10 11  2  0
 10 12  1  0
 12 13  1  0
 13 14  1  1
 14 15  1  0
 15 16  1  6
 15 17  1  0
 17 18  1  0
 18 19  1  0
 19 20  1  0
 20 21  1  0
 21 22  1  0
 22 23  1  0
 23 24  1  0
 13 25  1  0
 25 26  1  6
 25 27  1  0
 27 28  1  0
 28 29  1  0
 29 30  1  0
 30 31  1  0
 31 32  1  0
 29 33  1  0
 33 34  2  0
 34 35  1  0
 35 36  2  0
 36 37  1  0
 37 38  2  0
 35 39  1  0
 39 40  1  0
 39 41  1  0
 39 42  1  0
  9  4  1  0
 24  6  1  0
 32 29  1  0
 38 33  1  0
M  END
$$$$
