
     RDKit          3D

 42 45  0  0  0  0  0  0  0  0999 V2000
  -23.2601  -38.8213   -5.2556 C   0  0  0  0  0  0  0  0  0  0  0  0
  -23.6902  -40.1082   -4.9923 O   0  0  0  0  0  0  0  0  0  0  0  0
  -22.8036  -40.8147   -4.1892 C   0  0  0  0  0  0  0  0  0  0  0  0
  -21.8273  -41.5458   -5.0610 C   0  0  0  0  0  0  0  0  0  0  0  0
  -22.0035  -42.8527   -5.3928 C   0  0  0  0  0  0  0  0  0  0  0  0
  -21.0871  -43.5675   -6.2123 C   0  0  0  0  0  0  0  0  0  0  0  0
  -19.9724  -42.9221   -6.6924 C   0  0  0  0  0  0  0  0  0  0  0  0
  -19.7448  -41.5921   -6.3875 C   0  0  0  0  0  0  0  0  0  0  0  0
  -20.7116  -40.9459   -5.5611 C   0  0  0  0  0  0  0  0  0  0  0  0
  -18.6456  -40.6831   -6.8058 C   0  0  0  0  0  0  0  0  0  0  0  0
  -19.0913  -39.4484   -7.0543 O   0  0  0  0  0  0  0  0  0  0  0  0
  -17.2876  -40.7694   -7.0064 N   0  0  0  0  0  0  0  0  0  0  0  0
  -16.4775  -41.7085   -7.7978 C   0  0  1  0  0  0  0  0  0  0  0  0
  -17.1161  -42.1989   -9.0122 C   0  0  0  0  0  0  0  0  0  0  0  0
  -17.1044  -43.6570   -9.3129 C   0  0  2  0  0  0  0  0  0  0  0  0
  -16.2585  -44.5570   -8.5177 C   0  0  0  0  0  0  0  0  0  0  0  0
  -16.8082  -43.9386  -10.8104 C   0  0  0  0  0  0  0  0  0  0  0  0
  -17.9873  -44.6386  -11.4159 C   0  0  0  0  0  0  0  0  0  0  0  0
  -18.5311  -45.7831  -10.6410 C   0  0  0  0  0  0  0  0  0  0  0  0
  -20.0312  -45.6388  -10.4232 C   0  0  0  0  0  0  0  0  0  0  0  0
  -20.5646  -46.6845   -9.4988 C   0  0  0  0  0  0  0  0  0  0  0  0
  -20.4549  -46.3886   -8.0404 C   0  0  0  0  0  0  0  0  0  0  0  0
  -21.7175  -45.7130   -7.5863 C   0  0  0  0  0  0  0  0  0  0  0  0
  -21.5743  -44.9085   -6.3870 N   0  0  0  0  0  0  0  0  0  0  0  0
  -15.1559  -40.9568   -8.1894 C   0  0  2  0  0  0  0  0  0  0  0  0
  -14.1812  -41.7914   -7.5784 O   0  0  0  0  0  0  0  0  0  0  0  0
  -15.1106  -39.5755   -7.7237 C   0  0  0  0  0  0  0  0  0  0  0  0
  -16.1280  -38.7233   -8.1156 N   0  0  0  0  0  0  0  0  0  0  0  0
  -16.2094  -37.9459   -9.2603 C   0  0  0  0  0  0  0  0  0  0  0  0
  -15.6274  -38.8387  -10.4337 C   0  0  0  0  0  0  0  0  0  0  0  0
  -14.3787  -38.4984   -9.8697 O   0  0  0  0  0  0  0  0  0  0  0  0
  -14.9373  -37.2155   -9.6845 C   0  0  0  0  0  0  0  0  0  0  0  0
  -17.4429  -37.3435   -9.7593 C   0  0  0  0  0  0  0  0  0  0  0  0
  -18.6137  -37.3776   -8.9867 C   0  0  0  0  0  0  0  0  0  0  0  0
  -19.8155  -36.8853   -9.3940 C   0  0  0  0  0  0  0  0  0  0  0  0
  -19.9246  -36.3106  -10.6343 C   0  0  0  0  0  0  0  0  0  0  0  0
  -18.8072  -36.2481  -11.4391 C   0  0  0  0  0  0  0  0  0  0  0  0
  -17.6024  -36.7593  -10.9932 C   0  0  0  0  0  0  0  0  0  0  0  0
  -21.0434  -36.9533   -8.5486 C   0  0  0  0  0  0  0  0  0  0  0  0
  -22.0416  -37.9321   -9.0994 C   0  0  0  0  0  0  0  0  0  0  0  0
  -21.7361  -35.5875   -8.5287 C   0  0  0  0  0  0  0  0  0  0  0  0
  -20.6811  -37.2876   -7.1203 C   0  0  0  0  0  0  0  0  0  0  0  0
  1  2  1  0
  2  3  1  0
  3  4  1  0
  4  5  2  0
  5  6  1  0
  6  7  2  0
  7  8  1  0
  8  9  2  0
  8 10  1  0
 10 11  2  0
 10 12  1  0
 12 13  1  0
 13 14  1  6
 14 15  1  0
 15 16  1  1
 15 17  1  0
 17 18  1  0
 18 19  1  0
 19 20  1  0
 20 21  1  0
 21 22  1  0
 22 23  1  0
 23 24  1  0
 13 25  1  0
 25 26  1  1
 25 27  1  0
 27 28  1  0
 28 29  1  0
 29 30  1  0
 30 31  1  0
 31 32  1  0
 29 33  1  0
 33 34  2  0
 34 35  1  0
 35 36  2  0
 36 37  1  0
 37 38  2  0
 35 39  1  0
 39 40  1  0
 39 41  1  0
 39 42  1  0
  9  4  1  0
 24  6  1  0
 32 29  1  0
 38 33  1  0
M  END
$$$$
