
     RDKit          3D

 42 45  0  0  0  0  0  0  0  0999 V2000
  -18.8849  -49.1472   -6.0240 C   0  0  0  0  0  0  0  0  0  0  0  0
  -18.4709  -48.0397   -6.7401 O   0  0  0  0  0  0  0  0  0  0  0  0
  -19.3886  -47.6566   -7.7103 C   0  0  0  0  0  0  0  0  0  0  0  0
  -19.7588  -46.2198   -7.4958 C   0  0  0  0  0  0  0  0  0  0  0  0
  -21.0379  -45.8424   -7.2303 C   0  0  0  0  0  0  0  0  0  0  0  0
  -21.4127  -44.4852   -7.0303 C   0  0  0  0  0  0  0  0  0  0  0  0
  -20.4514  -43.5056   -7.1088 C   0  0  0  0  0  0  0  0  0  0  0  0
  -19.1341  -43.8337   -7.3743 C   0  0  0  0  0  0  0  0  0  0  0  0
  -18.8396  -45.2170   -7.5613 C   0  0  0  0  0  0  0  0  0  0  0  0
  -17.9288  -42.9698   -7.4768 C   0  0  0  0  0  0  0  0  0  0  0  0
  -16.8538  -43.5533   -6.9395 O   0  0  0  0  0  0  0  0  0  0  0  0
  -17.6193  -41.7268   -7.9782 N   0  0  0  0  0  0  0  0  0  0  0  0
  -18.2404  -40.4097   -7.7688 C   0  0  1  0  0  0  0  0  0  0  0  0
  -18.8077  -40.2014   -6.4430 C   0  0  0  0  0  0  0  0  0  0  0  0
  -20.1814  -39.6428   -6.3094 C   0  0  2  0  0  0  0  0  0  0  0  0
  -20.8604  -39.0914   -7.4896 C   0  0  0  0  0  0  0  0  0  0  0  0
  -20.2691  -38.5809   -5.1807 C   0  0  0  0  0  0  0  0  0  0  0  0
  -21.2285  -39.0619   -4.1342 C   0  0  0  0  0  0  0  0  0  0  0  0
  -22.5281  -39.5794   -4.6336 C   0  0  0  0  0  0  0  0  0  0  0  0
  -22.8228  -40.9639   -4.0725 C   0  0  0  0  0  0  0  0  0  0  0  0
  -24.0347  -41.5739   -4.6983 C   0  0  0  0  0  0  0  0  0  0  0  0
  -23.8175  -42.2857   -5.9916 C   0  0  0  0  0  0  0  0  0  0  0  0
  -23.5527  -43.7369   -5.7079 C   0  0  0  0  0  0  0  0  0  0  0  0
  -22.8216  -44.4326   -6.7508 N   0  0  0  0  0  0  0  0  0  0  0  0
  -17.1255  -39.3324   -8.0169 C   0  0  2  0  0  0  0  0  0  0  0  0
  -17.8881  -38.2875   -8.6058 O   0  0  0  0  0  0  0  0  0  0  0  0
  -16.0367  -39.8043   -8.8647 C   0  0  0  0  0  0  0  0  0  0  0  0
  -14.8042  -39.1867   -8.7442 N   0  0  0  0  0  0  0  0  0  0  0  0
  -13.7548  -39.1710   -9.6497 C   0  0  0  0  0  0  0  0  0  0  0  0
  -13.2060  -40.6572   -9.7041 C   0  0  0  0  0  0  0  0  0  0  0  0
  -12.6070  -40.3203   -8.4709 O   0  0  0  0  0  0  0  0  0  0  0  0
  -12.3476  -39.0671   -9.0661 C   0  0  0  0  0  0  0  0  0  0  0  0
  -13.8677  -38.7112  -11.0315 C   0  0  0  0  0  0  0  0  0  0  0  0
  -13.7434  -37.3479  -11.3392 C   0  0  0  0  0  0  0  0  0  0  0  0
  -13.8828  -36.8285  -12.5895 C   0  0  0  0  0  0  0  0  0  0  0  0
  -14.1622  -37.6639  -13.6406 C   0  0  0  0  0  0  0  0  0  0  0  0
  -14.2957  -39.0145  -13.3996 C   0  0  0  0  0  0  0  0  0  0  0  0
  -14.1483  -39.5074  -12.1162 C   0  0  0  0  0  0  0  0  0  0  0  0
  -13.7578  -35.3691  -12.8753 C   0  0  0  0  0  0  0  0  0  0  0  0
  -14.4752  -34.9888  -14.1398 C   0  0  0  0  0  0  0  0  0  0  0  0
  -12.2846  -35.0052  -13.0825 C   0  0  0  0  0  0  0  0  0  0  0  0
  -14.2539  -34.5585  -11.7006 C   0  0  0  0  0  0  0  0  0  0  0  0
  1  2  1  0
  2  3  1  0
  3  4  1  0
  4  5  2  0
  5  6  1  0
  6  7  2  0
  7  8  1  0
  8  9  2  0
  8 10  1  0
 10 11  2  0
 10 12  1  0
 12 13  1  0
 13 14  1  1
 14 15  1  0
 15 16  1  6
 15 17  1  0
 17 18  1  0
 18 19  1  0
 19 20  1  0
 20 21  1  0
 21 22  1  0
 22 23  1  0
 23 24  1  0
 13 25  1  0
 25 26  1  6
 25 27  1  0
 27 28  1  0
 28 29  1  0
 29 30  1  0
 30 31  1  0
 31 32  1  0
 29 33  1  0
 33 34  2  0
 34 35  1  0
 35 36  2  0
 36 37  1  0
 37 38  2  0
 35 39  1  0
 39 40  1  0
 39 41  1  0
 39 42  1  0
  9  4  1  0
 24  6  1  0
 32 29  1  0
 38 33  1  0
M  END
$$$$
