
     RDKit          3D

 42 45  0  0  0  0  0  0  0  0999 V2000
  -20.6112  -44.4631   -0.1338 C   0  0  0  0  0  0  0  0  0  0  0  0
  -20.1047  -43.8613   -1.2704 O   0  0  0  0  0  0  0  0  0  0  0  0
  -20.3705  -42.4984   -1.3176 C   0  0  0  0  0  0  0  0  0  0  0  0
  -20.5862  -42.0894   -2.7437 C   0  0  0  0  0  0  0  0  0  0  0  0
  -21.8186  -42.1174   -3.3175 C   0  0  0  0  0  0  0  0  0  0  0  0
  -22.0451  -41.7405   -4.6700 C   0  0  0  0  0  0  0  0  0  0  0  0
  -20.9816  -41.3320   -5.4393 C   0  0  0  0  0  0  0  0  0  0  0  0
  -19.7064  -41.2826   -4.9055 C   0  0  0  0  0  0  0  0  0  0  0  0
  -19.5631  -41.6755   -3.5416 C   0  0  0  0  0  0  0  0  0  0  0  0
  -18.4221  -40.8534   -5.5188 C   0  0  0  0  0  0  0  0  0  0  0  0
  -17.6617  -40.1767   -4.6535 O   0  0  0  0  0  0  0  0  0  0  0  0
  -17.8018  -40.9656   -6.7413 N   0  0  0  0  0  0  0  0  0  0  0  0
  -18.2682  -40.6576   -8.1022 C   0  0  1  0  0  0  0  0  0  0  0  0
  -19.1879  -39.5315   -8.1967 C   0  0  0  0  0  0  0  0  0  0  0  0
  -20.4427  -39.6699   -8.9861 C   0  0  2  0  0  0  0  0  0  0  0  0
  -20.6340  -40.8439   -9.8482 C   0  0  0  0  0  0  0  0  0  0  0  0
  -20.7316  -38.4084   -9.8431 C   0  0  0  0  0  0  0  0  0  0  0  0
  -22.0277  -37.8029   -9.3953 C   0  0  0  0  0  0  0  0  0  0  0  0
  -23.1637  -38.7462   -9.2348 C   0  0  0  0  0  0  0  0  0  0  0  0
  -23.8086  -38.6047   -7.8627 C   0  0  0  0  0  0  0  0  0  0  0  0
  -24.8355  -39.6618   -7.6165 C   0  0  0  0  0  0  0  0  0  0  0  0
  -24.3247  -40.9649   -7.0994 C   0  0  0  0  0  0  0  0  0  0  0  0
  -24.3663  -40.9406   -5.5979 C   0  0  0  0  0  0  0  0  0  0  0  0
  -23.4490  -41.8623   -4.9534 N   0  0  0  0  0  0  0  0  0  0  0  0
  -16.9936  -40.3435   -8.9636 C   0  0  2  0  0  0  0  0  0  0  0  0
  -16.6007  -41.6537   -9.3494 O   0  0  0  0  0  0  0  0  0  0  0  0
  -15.9597  -39.6195   -8.2330 C   0  0  0  0  0  0  0  0  0  0  0  0
  -14.6419  -39.8118   -8.6091 N   0  0  0  0  0  0  0  0  0  0  0  0
  -13.7415  -38.8816   -9.1043 C   0  0  0  0  0  0  0  0  0  0  0  0
  -12.3595  -39.6458   -9.2421 C   0  0  0  0  0  0  0  0  0  0  0  0
  -12.2996  -39.4772   -7.8416 O   0  0  0  0  0  0  0  0  0  0  0  0
  -12.8358  -38.1944   -8.0848 C   0  0  0  0  0  0  0  0  0  0  0  0
  -13.9335  -38.1288  -10.3412 C   0  0  0  0  0  0  0  0  0  0  0  0
  -12.9152  -37.2980  -10.8328 C   0  0  0  0  0  0  0  0  0  0  0  0
  -13.0273  -36.5257  -11.9480 C   0  0  0  0  0  0  0  0  0  0  0  0
  -14.1979  -36.5372  -12.6624 C   0  0  0  0  0  0  0  0  0  0  0  0
  -15.2346  -37.3348  -12.2278 C   0  0  0  0  0  0  0  0  0  0  0  0
  -15.0860  -38.1058  -11.0897 C   0  0  0  0  0  0  0  0  0  0  0  0
  -11.9259  -35.6427  -12.4318 C   0  0  0  0  0  0  0  0  0  0  0  0
  -11.3615  -34.8022  -11.3213 C   0  0  0  0  0  0  0  0  0  0  0  0
  -12.4650  -34.6702  -13.4850 C   0  0  0  0  0  0  0  0  0  0  0  0
  -10.8468  -36.4643  -13.0978 C   0  0  0  0  0  0  0  0  0  0  0  0
  1  2  1  0
  2  3  1  0
  3  4  1  0
  4  5  2  0
  5  6  1  0
  6  7  2  0
  7  8  1  0
  8  9  2  0
  8 10  1  0
 10 11  2  0
 10 12  1  0
 12 13  1  0
 13 14  1  1
 14 15  1  0
 15 16  1  6
 15 17  1  0
 17 18  1  0
 18 19  1  0
 19 20  1  0
 20 21  1  0
 21 22  1  0
 22 23  1  0
 23 24  1  0
 13 25  1  0
 25 26  1  1
 25 27  1  0
 27 28  1  0
 28 29  1  0
 29 30  1  0
 30 31  1  0
 31 32  1  0
 29 33  1  0
 33 34  2  0
 34 35  1  0
 35 36  2  0
 36 37  1  0
 37 38  2  0
 35 39  1  0
 39 40  1  0
 39 41  1  0
 39 42  1  0
  9  4  1  0
 24  6  1  0
 32 29  1  0
 38 33  1  0
M  END
$$$$
