
     RDKit          3D

 42 45  0  0  0  0  0  0  0  0999 V2000
  -15.2499  -46.1846  -14.6893 C   0  0  0  0  0  0  0  0  0  0  0  0
  -15.0483  -44.9379  -14.1273 O   0  0  0  0  0  0  0  0  0  0  0  0
  -13.8300  -44.8398  -13.4668 C   0  0  0  0  0  0  0  0  0  0  0  0
  -13.6526  -43.4366  -12.9697 C   0  0  0  0  0  0  0  0  0  0  0  0
  -12.6221  -42.6542  -13.3878 C   0  0  0  0  0  0  0  0  0  0  0  0
  -12.4307  -41.3234  -12.9245 C   0  0  0  0  0  0  0  0  0  0  0  0
  -13.3161  -40.7964  -12.0145 C   0  0  0  0  0  0  0  0  0  0  0  0
  -14.3837  -41.5477  -11.5569 C   0  0  0  0  0  0  0  0  0  0  0  0
  -14.5065  -42.8728  -12.0708 C   0  0  0  0  0  0  0  0  0  0  0  0
  -15.4748  -41.1937  -10.6114 C   0  0  0  0  0  0  0  0  0  0  0  0
  -16.6468  -41.7098  -10.9919 O   0  0  0  0  0  0  0  0  0  0  0  0
  -15.6046  -40.4760   -9.4452 N   0  0  0  0  0  0  0  0  0  0  0  0
  -15.1918  -39.1089   -9.0917 C   0  0  1  0  0  0  0  0  0  0  0  0
  -15.2429  -38.1489  -10.1866 C   0  0  0  0  0  0  0  0  0  0  0  0
  -14.0799  -37.2531  -10.4351 C   0  0  2  0  0  0  0  0  0  0  0  0
  -12.9960  -37.1769   -9.4465 C   0  0  0  0  0  0  0  0  0  0  0  0
  -14.5238  -35.8005  -10.7551 C   0  0  0  0  0  0  0  0  0  0  0  0
  -14.0695  -35.4471  -12.1392 C   0  0  0  0  0  0  0  0  0  0  0  0
  -12.6572  -35.7745  -12.4622 C   0  0  0  0  0  0  0  0  0  0  0  0
  -12.5591  -36.5859  -13.7470 C   0  0  0  0  0  0  0  0  0  0  0  0
  -11.1689  -37.0746  -13.9942 C   0  0  0  0  0  0  0  0  0  0  0  0
  -10.7901  -38.3473  -13.3138 C   0  0  0  0  0  0  0  0  0  0  0  0
  -11.0799  -39.4960  -14.2376 C   0  0  0  0  0  0  0  0  0  0  0  0
  -11.2727  -40.7717  -13.5731 N   0  0  0  0  0  0  0  0  0  0  0  0
  -16.1502  -38.6222   -7.9472 C   0  0  2  0  0  0  0  0  0  0  0  0
  -15.2088  -38.2378   -6.9541 O   0  0  0  0  0  0  0  0  0  0  0  0
  -17.0853  -39.6457   -7.4946 C   0  0  0  0  0  0  0  0  0  0  0  0
  -18.4396  -39.3857   -7.6091 N   0  0  0  0  0  0  0  0  0  0  0  0
  -19.3844  -40.0521   -8.3736 C   0  0  0  0  0  0  0  0  0  0  0  0
  -19.0567  -41.5954   -8.2206 C   0  0  0  0  0  0  0  0  0  0  0  0
  -18.0135  -41.3091   -9.1278 O   0  0  0  0  0  0  0  0  0  0  0  0
  -18.9542  -40.4794   -9.7751 C   0  0  0  0  0  0  0  0  0  0  0  0
  -20.8282  -39.9079   -8.2062 C   0  0  0  0  0  0  0  0  0  0  0  0
  -21.4444  -40.2778   -7.0010 C   0  0  0  0  0  0  0  0  0  0  0  0
  -22.7858  -40.2225   -6.7773 C   0  0  0  0  0  0  0  0  0  0  0  0
  -23.6188  -39.7802   -7.7729 C   0  0  0  0  0  0  0  0  0  0  0  0
  -23.0707  -39.4024   -8.9799 C   0  0  0  0  0  0  0  0  0  0  0  0
  -21.7033  -39.4725   -9.1725 C   0  0  0  0  0  0  0  0  0  0  0  0
  -23.4060  -40.6390   -5.4855 C   0  0  0  0  0  0  0  0  0  0  0  0
  -24.9058  -40.6690   -5.5754 C   0  0  0  0  0  0  0  0  0  0  0  0
  -23.0541  -39.6274   -4.3909 C   0  0  0  0  0  0  0  0  0  0  0  0
  -22.8581  -41.9768   -5.0459 C   0  0  0  0  0  0  0  0  0  0  0  0
  1  2  1  0
  2  3  1  0
  3  4  1  0
  4  5  2  0
  5  6  1  0
  6  7  2  0
  7  8  1  0
  8  9  2  0
  8 10  1  0
 10 11  2  0
 10 12  1  0
 12 13  1  0
 13 14  1  6
 14 15  1  0
 15 16  1  1
 15 17  1  0
 17 18  1  0
 18 19  1  0
 19 20  1  0
 20 21  1  0
 21 22  1  0
 22 23  1  0
 23 24  1  0
 13 25  1  0
 25 26  1  1
 25 27  1  0
 27 28  1  0
 28 29  1  0
 29 30  1  0
 30 31  1  0
 31 32  1  0
 29 33  1  0
 33 34  2  0
 34 35  1  0
 35 36  2  0
 36 37  1  0
 37 38  2  0
 35 39  1  0
 39 40  1  0
 39 41  1  0
 39 42  1  0
  9  4  1  0
 24  6  1  0
 32 29  1  0
 38 33  1  0
M  END
$$$$
