
     RDKit          3D

 42 45  0  0  0  0  0  0  0  0999 V2000
  -21.1301  -38.7066  -15.1685 C   0  0  0  0  0  0  0  0  0  0  0  0
  -20.6851  -39.8341  -14.5042 O   0  0  0  0  0  0  0  0  0  0  0  0
  -21.6985  -40.4779  -13.8052 C   0  0  0  0  0  0  0  0  0  0  0  0
  -21.4029  -40.4086  -12.3371 C   0  0  0  0  0  0  0  0  0  0  0  0
  -22.3953  -40.3538  -11.4092 C   0  0  0  0  0  0  0  0  0  0  0  0
  -22.1380  -40.2808  -10.0125 C   0  0  0  0  0  0  0  0  0  0  0  0
  -20.8365  -40.2614   -9.5706 C   0  0  0  0  0  0  0  0  0  0  0  0
  -19.7879  -40.3169  -10.4711 C   0  0  0  0  0  0  0  0  0  0  0  0
  -20.1296  -40.3901  -11.8543 C   0  0  0  0  0  0  0  0  0  0  0  0
  -18.3198  -40.3399  -10.2390 C   0  0  0  0  0  0  0  0  0  0  0  0
  -17.6966  -41.1604  -11.0895 O   0  0  0  0  0  0  0  0  0  0  0  0
  -17.4254  -39.7418   -9.3822 N   0  0  0  0  0  0  0  0  0  0  0  0
  -17.4051  -39.6335   -7.9151 C   0  0  1  0  0  0  0  0  0  0  0  0
  -17.9708  -40.7742   -7.2067 C   0  0  0  0  0  0  0  0  0  0  0  0
  -18.9494  -40.5469   -6.1079 C   0  0  2  0  0  0  0  0  0  0  0  0
  -19.1603  -39.1881   -5.5911 C   0  0  0  0  0  0  0  0  0  0  0  0
  -18.6821  -41.4736   -4.8915 C   0  0  0  0  0  0  0  0  0  0  0  0
  -19.8724  -42.3613   -4.6860 C   0  0  0  0  0  0  0  0  0  0  0  0
  -21.1957  -41.6871   -4.7031 C   0  0  0  0  0  0  0  0  0  0  0  0
  -22.1481  -42.3661   -5.6780 C   0  0  0  0  0  0  0  0  0  0  0  0
  -23.4207  -41.6001   -5.8407 C   0  0  0  0  0  0  0  0  0  0  0  0
  -23.3957  -40.4909   -6.8385 C   0  0  0  0  0  0  0  0  0  0  0  0
  -23.8504  -41.0238   -8.1674 C   0  0  0  0  0  0  0  0  0  0  0  0
  -23.3936  -40.2589   -9.3131 N   0  0  0  0  0  0  0  0  0  0  0  0
  -15.9033  -39.4671   -7.4884 C   0  0  2  0  0  0  0  0  0  0  0  0
  -16.0517  -39.0847   -6.1276 O   0  0  0  0  0  0  0  0  0  0  0  0
  -15.1741  -38.4903   -8.2890 C   0  0  0  0  0  0  0  0  0  0  0  0
  -15.5405  -38.3318   -9.6140 N   0  0  0  0  0  0  0  0  0  0  0  0
  -14.7376  -38.0186  -10.6996 C   0  0  0  0  0  0  0  0  0  0  0  0
  -14.4619  -36.4607  -10.6006 C   0  0  0  0  0  0  0  0  0  0  0  0
  -15.7786  -36.3494  -11.0976 O   0  0  0  0  0  0  0  0  0  0  0  0
  -15.4392  -37.4402  -11.9265 C   0  0  0  0  0  0  0  0  0  0  0  0
  -13.4557  -38.6574  -10.9860 C   0  0  0  0  0  0  0  0  0  0  0  0
  -12.6240  -38.1589  -12.0001 C   0  0  0  0  0  0  0  0  0  0  0  0
  -11.4391  -38.7204  -12.3650 C   0  0  0  0  0  0  0  0  0  0  0  0
  -10.9985  -39.8472  -11.7193 C   0  0  0  0  0  0  0  0  0  0  0  0
  -11.7734  -40.3832  -10.7133 C   0  0  0  0  0  0  0  0  0  0  0  0
  -12.9725  -39.7868  -10.3694 C   0  0  0  0  0  0  0  0  0  0  0  0
  -10.5883  -38.1688  -13.4600 C   0  0  0  0  0  0  0  0  0  0  0  0
  -11.2538  -38.3046  -14.8004 C   0  0  0  0  0  0  0  0  0  0  0  0
   -9.2756  -38.9533  -13.5425 C   0  0  0  0  0  0  0  0  0  0  0  0
  -10.2278  -36.7299  -13.1722 C   0  0  0  0  0  0  0  0  0  0  0  0
  1  2  1  0
  2  3  1  0
  3  4  1  0
  4  5  2  0
  5  6  1  0
  6  7  2  0
  7  8  1  0
  8  9  2  0
  8 10  1  0
 10 11  2  0
 10 12  1  0
 12 13  1  0
 13 14  1  1
 14 15  1  0
 15 16  1  1
 15 17  1  0
 17 18  1  0
 18 19  1  0
 19 20  1  0
 20 21  1  0
 21 22  1  0
 22 23  1  0
 23 24  1  0
 13 25  1  0
 25 26  1  1
 25 27  1  0
 27 28  1  0
 28 29  1  0
 29 30  1  0
 30 31  1  0
 31 32  1  0
 29 33  1  0
 33 34  2  0
 34 35  1  0
 35 36  2  0
 36 37  1  0
 37 38  2  0
 35 39  1  0
 39 40  1  0
 39 41  1  0
 39 42  1  0
  9  4  1  0
 24  6  1  0
 32 29  1  0
 38 33  1  0
M  END
$$$$
