
     RDKit          3D

 42 45  0  0  0  0  0  0  0  0999 V2000
  -16.1016  -46.7194  -11.4314 C   0  0  0  0  0  0  0  0  0  0  0  0
  -17.4169  -46.3158  -11.5647 O   0  0  0  0  0  0  0  0  0  0  0  0
  -18.1648  -46.5420  -10.4159 C   0  0  0  0  0  0  0  0  0  0  0  0
  -18.5919  -45.2249   -9.8409 C   0  0  0  0  0  0  0  0  0  0  0  0
  -19.8938  -44.8325   -9.8411 C   0  0  0  0  0  0  0  0  0  0  0  0
  -20.3203  -43.5852   -9.3075 C   0  0  0  0  0  0  0  0  0  0  0  0
  -19.3867  -42.7318   -8.7692 C   0  0  0  0  0  0  0  0  0  0  0  0
  -18.0486  -43.0815   -8.7413 C   0  0  0  0  0  0  0  0  0  0  0  0
  -17.7025  -44.3499   -9.2951 C   0  0  0  0  0  0  0  0  0  0  0  0
  -16.8744  -42.3527   -8.1939 C   0  0  0  0  0  0  0  0  0  0  0  0
  -16.0085  -43.1810   -7.6034 O   0  0  0  0  0  0  0  0  0  0  0  0
  -16.4359  -41.0504   -8.1314 N   0  0  0  0  0  0  0  0  0  0  0  0
  -17.0999  -39.8199   -7.6737 C   0  0  1  0  0  0  0  0  0  0  0  0
  -18.0428  -40.0014   -6.5778 C   0  0  0  0  0  0  0  0  0  0  0  0
  -19.3962  -39.3865   -6.6617 C   0  0  2  0  0  0  0  0  0  0  0  0
  -19.6901  -38.4171   -7.7255 C   0  0  0  0  0  0  0  0  0  0  0  0
  -19.8280  -38.7475   -5.3145 C   0  0  0  0  0  0  0  0  0  0  0  0
  -21.0557  -39.4481   -4.8157 C   0  0  0  0  0  0  0  0  0  0  0  0
  -22.1401  -39.6457   -5.8113 C   0  0  0  0  0  0  0  0  0  0  0  0
  -22.5817  -41.1020   -5.8642 C   0  0  0  0  0  0  0  0  0  0  0  0
  -23.5437  -41.3538   -6.9794 C   0  0  0  0  0  0  0  0  0  0  0  0
  -22.9409  -41.6224   -8.3177 C   0  0  0  0  0  0  0  0  0  0  0  0
  -22.7649  -43.1053   -8.4815 C   0  0  0  0  0  0  0  0  0  0  0  0
  -21.7482  -43.4902   -9.4430 N   0  0  0  0  0  0  0  0  0  0  0  0
  -15.9692  -38.8342   -7.2100 C   0  0  2  0  0  0  0  0  0  0  0  0
  -16.6856  -37.6077   -7.1614 O   0  0  0  0  0  0  0  0  0  0  0  0
  -14.8208  -38.7997   -8.1083 C   0  0  0  0  0  0  0  0  0  0  0  0
  -14.5533  -39.9266   -8.8656 N   0  0  0  0  0  0  0  0  0  0  0  0
  -13.7046  -40.0531   -9.9541 C   0  0  0  0  0  0  0  0  0  0  0  0
  -13.7041  -41.5937  -10.3275 C   0  0  0  0  0  0  0  0  0  0  0  0
  -12.8531  -41.7099   -9.2070 O   0  0  0  0  0  0  0  0  0  0  0  0
  -12.2757  -40.5043   -9.6601 C   0  0  0  0  0  0  0  0  0  0  0  0
  -13.8561  -39.3150  -11.2053 C   0  0  0  0  0  0  0  0  0  0  0  0
  -14.5339  -38.0866  -11.2282 C   0  0  0  0  0  0  0  0  0  0  0  0
  -14.7626  -37.3582  -12.3550 C   0  0  0  0  0  0  0  0  0  0  0  0
  -14.3140  -37.8253  -13.5638 C   0  0  0  0  0  0  0  0  0  0  0  0
  -13.6406  -39.0273  -13.6040 C   0  0  0  0  0  0  0  0  0  0  0  0
  -13.4269  -39.7414  -12.4395 C   0  0  0  0  0  0  0  0  0  0  0  0
  -15.5013  -36.0615  -12.3412 C   0  0  0  0  0  0  0  0  0  0  0  0
  -15.4498  -35.3805  -13.6797 C   0  0  0  0  0  0  0  0  0  0  0  0
  -14.8505  -35.1041  -11.3386 C   0  0  0  0  0  0  0  0  0  0  0  0
  -16.9279  -36.2734  -11.8904 C   0  0  0  0  0  0  0  0  0  0  0  0
  1  2  1  0
  2  3  1  0
  3  4  1  0
  4  5  2  0
  5  6  1  0
  6  7  2  0
  7  8  1  0
  8  9  2  0
  8 10  1  0
 10 11  2  0
 10 12  1  0
 12 13  1  0
 13 14  1  1
 14 15  1  0
 15 16  1  6
 15 17  1  0
 17 18  1  0
 18 19  1  0
 19 20  1  0
 20 21  1  0
 21 22  1  0
 22 23  1  0
 23 24  1  0
 13 25  1  0
 25 26  1  6
 25 27  1  0
 27 28  1  0
 28 29  1  0
 29 30  1  0
 30 31  1  0
 31 32  1  0
 29 33  1  0
 33 34  2  0
 34 35  1  0
 35 36  2  0
 36 37  1  0
 37 38  2  0
 35 39  1  0
 39 40  1  0
 39 41  1  0
 39 42  1  0
  9  4  1  0
 24  6  1  0
 32 29  1  0
 38 33  1  0
M  END
$$$$
