
     RDKit          3D

 42 45  0  0  0  0  0  0  0  0999 V2000
  -17.4525  -48.7509   -7.7960 C   0  0  0  0  0  0  0  0  0  0  0  0
  -18.5407  -47.9006   -7.8533 O   0  0  0  0  0  0  0  0  0  0  0  0
  -18.9227  -47.4358   -6.6010 C   0  0  0  0  0  0  0  0  0  0  0  0
  -19.3439  -46.0017   -6.7171 C   0  0  0  0  0  0  0  0  0  0  0  0
  -20.6497  -45.6307   -6.6379 C   0  0  0  0  0  0  0  0  0  0  0  0
  -21.0722  -44.2776   -6.7521 C   0  0  0  0  0  0  0  0  0  0  0  0
  -20.1311  -43.2960   -6.9535 C   0  0  0  0  0  0  0  0  0  0  0  0
  -18.7884  -43.6172   -7.0398 C   0  0  0  0  0  0  0  0  0  0  0  0
  -18.4464  -44.9965   -6.9139 C   0  0  0  0  0  0  0  0  0  0  0  0
  -17.5994  -42.7437   -7.2214 C   0  0  0  0  0  0  0  0  0  0  0  0
  -16.5615  -43.1616   -6.4915 O   0  0  0  0  0  0  0  0  0  0  0  0
  -17.2771  -41.6169   -7.9415 N   0  0  0  0  0  0  0  0  0  0  0  0
  -17.9449  -40.3112   -8.0580 C   0  0  1  0  0  0  0  0  0  0  0  0
  -18.6295  -39.8612   -6.8531 C   0  0  0  0  0  0  0  0  0  0  0  0
  -20.0223  -39.3437   -6.9475 C   0  0  2  0  0  0  0  0  0  0  0  0
  -20.6095  -39.0716   -8.2663 C   0  0  0  0  0  0  0  0  0  0  0  0
  -20.2324  -38.0790   -6.0722 C   0  0  0  0  0  0  0  0  0  0  0  0
  -21.2671  -38.3762   -5.0291 C   0  0  0  0  0  0  0  0  0  0  0  0
  -22.5060  -39.0369   -5.5134 C   0  0  0  0  0  0  0  0  0  0  0  0
  -22.8155  -40.2894   -4.7047 C   0  0  0  0  0  0  0  0  0  0  0  0
  -23.9540  -41.0627   -5.2863 C   0  0  0  0  0  0  0  0  0  0  0  0
  -23.6090  -42.0129   -6.3838 C   0  0  0  0  0  0  0  0  0  0  0  0
  -23.3357  -43.3642   -5.7872 C   0  0  0  0  0  0  0  0  0  0  0  0
  -22.5009  -44.2268   -6.6029 N   0  0  0  0  0  0  0  0  0  0  0  0
  -16.8384  -39.2622   -8.4328 C   0  0  2  0  0  0  0  0  0  0  0  0
  -17.6338  -38.1121   -8.6869 O   0  0  0  0  0  0  0  0  0  0  0  0
  -16.0168  -39.6617   -9.5695 C   0  0  0  0  0  0  0  0  0  0  0  0
  -14.7467  -40.1484   -9.3149 N   0  0  0  0  0  0  0  0  0  0  0  0
  -13.5977  -40.0013  -10.0762 C   0  0  0  0  0  0  0  0  0  0  0  0
  -13.1812  -41.4648  -10.5208 C   0  0  0  0  0  0  0  0  0  0  0  0
  -12.7091  -41.5701   -9.1944 O   0  0  0  0  0  0  0  0  0  0  0  0
  -12.2684  -40.2400   -9.3636 C   0  0  0  0  0  0  0  0  0  0  0  0
  -13.5000  -39.1552  -11.2627 C   0  0  0  0  0  0  0  0  0  0  0  0
  -13.5459  -37.7577  -11.1448 C   0  0  0  0  0  0  0  0  0  0  0  0
  -13.5109  -36.8979  -12.1993 C   0  0  0  0  0  0  0  0  0  0  0  0
  -13.4241  -37.3959  -13.4741 C   0  0  0  0  0  0  0  0  0  0  0  0
  -13.3753  -38.7618  -13.6528 C   0  0  0  0  0  0  0  0  0  0  0  0
  -13.4140  -39.6058  -12.5584 C   0  0  0  0  0  0  0  0  0  0  0  0
  -13.5768  -35.4162  -12.0345 C   0  0  0  0  0  0  0  0  0  0  0  0
  -14.7051  -35.0092  -11.1291 C   0  0  0  0  0  0  0  0  0  0  0  0
  -13.8438  -34.7546  -13.3896 C   0  0  0  0  0  0  0  0  0  0  0  0
  -12.2547  -34.8831  -11.5335 C   0  0  0  0  0  0  0  0  0  0  0  0
  1  2  1  0
  2  3  1  0
  3  4  1  0
  4  5  2  0
  5  6  1  0
  6  7  2  0
  7  8  1  0
  8  9  2  0
  8 10  1  0
 10 11  2  0
 10 12  1  0
 12 13  1  0
 13 14  1  1
 14 15  1  0
 15 16  1  6
 15 17  1  0
 17 18  1  0
 18 19  1  0
 19 20  1  0
 20 21  1  0
 21 22  1  0
 22 23  1  0
 23 24  1  0
 13 25  1  0
 25 26  1  6
 25 27  1  0
 27 28  1  0
 28 29  1  0
 29 30  1  0
 30 31  1  0
 31 32  1  0
 29 33  1  0
 33 34  2  0
 34 35  1  0
 35 36  2  0
 36 37  1  0
 37 38  2  0
 35 39  1  0
 39 40  1  0
 39 41  1  0
 39 42  1  0
  9  4  1  0
 24  6  1  0
 32 29  1  0
 38 33  1  0
M  END
$$$$
