
     RDKit          3D

 42 45  0  0  0  0  0  0  0  0999 V2000
  -21.4966  -38.6778  -15.0352 C   0  0  0  0  0  0  0  0  0  0  0  0
  -20.7649  -39.7543  -14.5702 O   0  0  0  0  0  0  0  0  0  0  0  0
  -21.5478  -40.6802  -13.8921 C   0  0  0  0  0  0  0  0  0  0  0  0
  -21.3247  -40.5256  -12.4176 C   0  0  0  0  0  0  0  0  0  0  0  0
  -22.3577  -40.3394  -11.5532 C   0  0  0  0  0  0  0  0  0  0  0  0
  -22.1688  -40.1837  -10.1524 C   0  0  0  0  0  0  0  0  0  0  0  0
  -20.8937  -40.2185   -9.6398 C   0  0  0  0  0  0  0  0  0  0  0  0
  -19.8062  -40.4072  -10.4737 C   0  0  0  0  0  0  0  0  0  0  0  0
  -20.0800  -40.5564  -11.8658 C   0  0  0  0  0  0  0  0  0  0  0  0
  -18.3574  -40.5101  -10.1578 C   0  0  0  0  0  0  0  0  0  0  0  0
  -17.7495  -41.4285  -10.9140 O   0  0  0  0  0  0  0  0  0  0  0  0
  -17.4692  -39.9123   -9.2943 N   0  0  0  0  0  0  0  0  0  0  0  0
  -17.5176  -39.7009   -7.8391 C   0  0  1  0  0  0  0  0  0  0  0  0
  -18.1972  -40.7483   -7.0881 C   0  0  0  0  0  0  0  0  0  0  0  0
  -19.2134  -40.3791   -6.0644 C   0  0  2  0  0  0  0  0  0  0  0  0
  -19.3557  -38.9759   -5.6538 C   0  0  0  0  0  0  0  0  0  0  0  0
  -19.0747  -41.2319   -4.7748 C   0  0  0  0  0  0  0  0  0  0  0  0
  -20.3329  -42.0224   -4.5772 C   0  0  0  0  0  0  0  0  0  0  0  0
  -21.6034  -41.2655   -4.7150 C   0  0  0  0  0  0  0  0  0  0  0  0
  -22.5490  -41.9484   -5.6939 C   0  0  0  0  0  0  0  0  0  0  0  0
  -23.7549  -41.1140   -5.9801 C   0  0  0  0  0  0  0  0  0  0  0  0
  -23.6011  -40.0831   -7.0478 C   0  0  0  0  0  0  0  0  0  0  0  0
  -24.0222  -40.6786   -8.3611 C   0  0  0  0  0  0  0  0  0  0  0  0
  -23.4544  -40.0294   -9.5283 N   0  0  0  0  0  0  0  0  0  0  0  0
  -16.0320  -39.6036   -7.3403 C   0  0  2  0  0  0  0  0  0  0  0  0
  -15.8224  -38.1988   -7.3938 O   0  0  0  0  0  0  0  0  0  0  0  0
  -15.0914  -40.3618   -8.1572 C   0  0  0  0  0  0  0  0  0  0  0  0
  -13.9460  -39.7204   -8.5947 N   0  0  0  0  0  0  0  0  0  0  0  0
  -13.1837  -39.9885   -9.7209 C   0  0  0  0  0  0  0  0  0  0  0  0
  -13.4482  -41.5116  -10.0717 C   0  0  0  0  0  0  0  0  0  0  0  0
  -12.5719  -41.7555   -8.9919 O   0  0  0  0  0  0  0  0  0  0  0  0
  -11.8325  -40.6612   -9.4896 C   0  0  0  0  0  0  0  0  0  0  0  0
  -13.2774  -39.2437  -10.9739 C   0  0  0  0  0  0  0  0  0  0  0  0
  -14.0863  -38.1006  -11.0624 C   0  0  0  0  0  0  0  0  0  0  0  0
  -14.2691  -37.3771  -12.2007 C   0  0  0  0  0  0  0  0  0  0  0  0
  -13.6355  -37.7618  -13.3545 C   0  0  0  0  0  0  0  0  0  0  0  0
  -12.8269  -38.8779  -13.3289 C   0  0  0  0  0  0  0  0  0  0  0  0
  -12.6648  -39.5896  -12.1547 C   0  0  0  0  0  0  0  0  0  0  0  0
  -15.1501  -36.1740  -12.2591 C   0  0  0  0  0  0  0  0  0  0  0  0
  -14.8111  -35.1863  -11.1785 C   0  0  0  0  0  0  0  0  0  0  0  0
  -16.6074  -36.5864  -12.0324 C   0  0  0  0  0  0  0  0  0  0  0  0
  -15.0776  -35.5346  -13.6262 C   0  0  0  0  0  0  0  0  0  0  0  0
  1  2  1  0
  2  3  1  0
  3  4  1  0
  4  5  2  0
  5  6  1  0
  6  7  2  0
  7  8  1  0
  8  9  2  0
  8 10  1  0
 10 11  2  0
 10 12  1  0
 12 13  1  0
 13 14  1  1
 14 15  1  0
 15 16  1  1
 15 17  1  0
 17 18  1  0
 18 19  1  0
 19 20  1  0
 20 21  1  0
 21 22  1  0
 22 23  1  0
 23 24  1  0
 13 25  1  0
 25 26  1  6
 25 27  1  0
 27 28  1  0
 28 29  1  0
 29 30  1  0
 30 31  1  0
 31 32  1  0
 29 33  1  0
 33 34  2  0
 34 35  1  0
 35 36  2  0
 36 37  1  0
 37 38  2  0
 35 39  1  0
 39 40  1  0
 39 41  1  0
 39 42  1  0
  9  4  1  0
 24  6  1  0
 32 29  1  0
 38 33  1  0
M  END
$$$$
