
     RDKit          3D

 42 45  0  0  0  0  0  0  0  0999 V2000
  -23.4670  -45.7577  -11.9256 C   0  0  0  0  0  0  0  0  0  0  0  0
  -22.2957  -45.0238  -11.9277 O   0  0  0  0  0  0  0  0  0  0  0  0
  -22.5015  -43.6890  -12.2536 C   0  0  0  0  0  0  0  0  0  0  0  0
  -22.1310  -42.8341  -11.0791 C   0  0  0  0  0  0  0  0  0  0  0  0
  -23.0726  -42.2027  -10.3283 C   0  0  0  0  0  0  0  0  0  0  0  0
  -22.7436  -41.3818   -9.2146 C   0  0  0  0  0  0  0  0  0  0  0  0
  -21.4226  -41.2101   -8.8753 C   0  0  0  0  0  0  0  0  0  0  0  0
  -20.4237  -41.8308   -9.6036 C   0  0  0  0  0  0  0  0  0  0  0  0
  -20.8363  -42.6383  -10.7050 C   0  0  0  0  0  0  0  0  0  0  0  0
  -18.9491  -41.8226   -9.4165 C   0  0  0  0  0  0  0  0  0  0  0  0
  -18.4109  -43.0187   -9.6702 O   0  0  0  0  0  0  0  0  0  0  0  0
  -17.9844  -40.9124   -9.0519 N   0  0  0  0  0  0  0  0  0  0  0  0
  -17.8867  -40.0067   -7.8966 C   0  0  1  0  0  0  0  0  0  0  0  0
  -18.4740  -40.5165   -6.6645 C   0  0  0  0  0  0  0  0  0  0  0  0
  -19.3846  -39.6480   -5.8687 C   0  0  2  0  0  0  0  0  0  0  0  0
  -19.5006  -38.2210   -6.1976 C   0  0  0  0  0  0  0  0  0  0  0  0
  -19.1054  -39.7555   -4.3455 C   0  0  0  0  0  0  0  0  0  0  0  0
  -20.3276  -40.2926   -3.6639 C   0  0  0  0  0  0  0  0  0  0  0  0
  -21.6142  -39.6523   -4.0389 C   0  0  0  0  0  0  0  0  0  0  0  0
  -22.6467  -40.6911   -4.4554 C   0  0  0  0  0  0  0  0  0  0  0  0
  -23.8851  -40.0595   -5.0030 C   0  0  0  0  0  0  0  0  0  0  0  0
  -23.8529  -39.6995   -6.4507 C   0  0  0  0  0  0  0  0  0  0  0  0
  -24.3988  -40.8493   -7.2486 C   0  0  0  0  0  0  0  0  0  0  0  0
  -23.9606  -40.8866   -8.6316 N   0  0  0  0  0  0  0  0  0  0  0  0
  -16.3592  -39.7357   -7.6545 C   0  0  2  0  0  0  0  0  0  0  0  0
  -16.3673  -38.3317   -7.4340 O   0  0  0  0  0  0  0  0  0  0  0  0
  -15.5107  -40.1428   -8.7686 C   0  0  0  0  0  0  0  0  0  0  0  0
  -14.1790  -40.4132   -8.5070 N   0  0  0  0  0  0  0  0  0  0  0  0
  -13.1273  -40.5170   -9.4039 C   0  0  0  0  0  0  0  0  0  0  0  0
  -12.8111  -42.0656   -9.5248 C   0  0  0  0  0  0  0  0  0  0  0  0
  -12.1845  -41.8811   -8.2732 O   0  0  0  0  0  0  0  0  0  0  0  0
  -11.7288  -40.6565   -8.8068 C   0  0  0  0  0  0  0  0  0  0  0  0
  -13.1498  -39.9827  -10.7631 C   0  0  0  0  0  0  0  0  0  0  0  0
  -12.8855  -38.6247  -10.9973 C   0  0  0  0  0  0  0  0  0  0  0  0
  -12.9331  -38.0348  -12.2230 C   0  0  0  0  0  0  0  0  0  0  0  0
  -13.2561  -38.7877  -13.3227 C   0  0  0  0  0  0  0  0  0  0  0  0
  -13.5259  -40.1290  -13.1547 C   0  0  0  0  0  0  0  0  0  0  0  0
  -13.4691  -40.6949  -11.8945 C   0  0  0  0  0  0  0  0  0  0  0  0
  -12.6597  -36.5825  -12.4304 C   0  0  0  0  0  0  0  0  0  0  0  0
  -11.5688  -36.0890  -11.5223 C   0  0  0  0  0  0  0  0  0  0  0  0
  -13.9108  -35.7657  -12.0942 C   0  0  0  0  0  0  0  0  0  0  0  0
  -12.3289  -36.3110  -13.8795 C   0  0  0  0  0  0  0  0  0  0  0  0
  1  2  1  0
  2  3  1  0
  3  4  1  0
  4  5  2  0
  5  6  1  0
  6  7  2  0
  7  8  1  0
  8  9  2  0
  8 10  1  0
 10 11  2  0
 10 12  1  0
 12 13  1  0
 13 14  1  1
 14 15  1  0
 15 16  1  6
 15 17  1  0
 17 18  1  0
 18 19  1  0
 19 20  1  0
 20 21  1  0
 21 22  1  0
 22 23  1  0
 23 24  1  0
 13 25  1  0
 25 26  1  6
 25 27  1  0
 27 28  1  0
 28 29  1  0
 29 30  1  0
 30 31  1  0
 31 32  1  0
 29 33  1  0
 33 34  2  0
 34 35  1  0
 35 36  2  0
 36 37  1  0
 37 38  2  0
 35 39  1  0
 39 40  1  0
 39 41  1  0
 39 42  1  0
  9  4  1  0
 24  6  1  0
 32 29  1  0
 38 33  1  0
M  END
$$$$
