
     RDKit          3D

 42 45  0  0  0  0  0  0  0  0999 V2000
  -23.7399  -36.0827   -8.9877 C   0  0  0  0  0  0  0  0  0  0  0  0
  -22.5202  -36.1918   -8.3467 O   0  0  0  0  0  0  0  0  0  0  0  0
  -22.6389  -36.6769   -7.0502 C   0  0  0  0  0  0  0  0  0  0  0  0
  -21.9305  -37.9945   -6.9523 C   0  0  0  0  0  0  0  0  0  0  0  0
  -22.5541  -39.1094   -6.4863 C   0  0  0  0  0  0  0  0  0  0  0  0
  -21.8998  -40.3674   -6.3785 C   0  0  0  0  0  0  0  0  0  0  0  0
  -20.5820  -40.4722   -6.7553 C   0  0  0  0  0  0  0  0  0  0  0  0
  -19.8996  -39.3701   -7.2383 C   0  0  0  0  0  0  0  0  0  0  0  0
  -20.6270  -38.1454   -7.3168 C   0  0  0  0  0  0  0  0  0  0  0  0
  -18.5024  -39.2422   -7.7292 C   0  0  0  0  0  0  0  0  0  0  0  0
  -18.4206  -38.4256   -8.7834 O   0  0  0  0  0  0  0  0  0  0  0  0
  -17.2654  -39.7387   -7.3898 N   0  0  0  0  0  0  0  0  0  0  0  0
  -16.7966  -41.1147   -7.1634 C   0  0  1  0  0  0  0  0  0  0  0  0
  -17.4490  -42.1287   -7.9814 C   0  0  0  0  0  0  0  0  0  0  0  0
  -17.9601  -43.3728   -7.3429 C   0  0  2  0  0  0  0  0  0  0  0  0
  -17.6014  -43.6765   -5.9511 C   0  0  0  0  0  0  0  0  0  0  0  0
  -17.6452  -44.6331   -8.1926 C   0  0  0  0  0  0  0  0  0  0  0  0
  -18.9350  -45.2730   -8.6096 C   0  0  0  0  0  0  0  0  0  0  0  0
  -19.9455  -45.4561   -7.5367 C   0  0  0  0  0  0  0  0  0  0  0  0
  -21.2931  -44.8752   -7.9432 C   0  0  0  0  0  0  0  0  0  0  0  0
  -22.2716  -44.8908   -6.8141 C   0  0  0  0  0  0  0  0  0  0  0  0
  -22.2038  -43.7364   -5.8712 C   0  0  0  0  0  0  0  0  0  0  0  0
  -23.1552  -42.6719   -6.3385 C   0  0  0  0  0  0  0  0  0  0  0  0
  -22.8383  -41.3333   -5.8760 N   0  0  0  0  0  0  0  0  0  0  0  0
  -15.2569  -41.1308   -7.4705 C   0  0  2  0  0  0  0  0  0  0  0  0
  -14.7623  -40.3303   -6.4053 O   0  0  0  0  0  0  0  0  0  0  0  0
  -14.9199  -40.6116   -8.7910 C   0  0  0  0  0  0  0  0  0  0  0  0
  -14.0667  -39.5245   -8.8640 N   0  0  0  0  0  0  0  0  0  0  0  0
  -14.3263  -38.2556   -9.3578 C   0  0  0  0  0  0  0  0  0  0  0  0
  -12.9632  -37.7478   -9.9880 C   0  0  0  0  0  0  0  0  0  0  0  0
  -12.5975  -37.5296   -8.6419 O   0  0  0  0  0  0  0  0  0  0  0  0
  -13.9243  -37.0796   -8.4706 C   0  0  0  0  0  0  0  0  0  0  0  0
  -15.3786  -37.9481  -10.3228 C   0  0  0  0  0  0  0  0  0  0  0  0
  -15.5117  -36.6504  -10.8398 C   0  0  0  0  0  0  0  0  0  0  0  0
  -16.4910  -36.2660  -11.7033 C   0  0  0  0  0  0  0  0  0  0  0  0
  -17.4246  -37.1815  -12.1167 C   0  0  0  0  0  0  0  0  0  0  0  0
  -17.3449  -38.4733  -11.6423 C   0  0  0  0  0  0  0  0  0  0  0  0
  -16.3369  -38.8286  -10.7652 C   0  0  0  0  0  0  0  0  0  0  0  0
  -16.6086  -34.8710  -12.2204 C   0  0  0  0  0  0  0  0  0  0  0  0
  -15.2996  -34.3686  -12.7612 C   0  0  0  0  0  0  0  0  0  0  0  0
  -17.0018  -33.9265  -11.0808 C   0  0  0  0  0  0  0  0  0  0  0  0
  -17.6991  -34.7864  -13.2628 C   0  0  0  0  0  0  0  0  0  0  0  0
  1  2  1  0
  2  3  1  0
  3  4  1  0
  4  5  2  0
  5  6  1  0
  6  7  2  0
  7  8  1  0
  8  9  2  0
  8 10  1  0
 10 11  2  0
 10 12  1  0
 12 13  1  0
 13 14  1  6
 14 15  1  0
 15 16  1  1
 15 17  1  0
 17 18  1  0
 18 19  1  0
 19 20  1  0
 20 21  1  0
 21 22  1  0
 22 23  1  0
 23 24  1  0
 13 25  1  0
 25 26  1  1
 25 27  1  0
 27 28  1  0
 28 29  1  0
 29 30  1  0
 30 31  1  0
 31 32  1  0
 29 33  1  0
 33 34  2  0
 34 35  1  0
 35 36  2  0
 36 37  1  0
 37 38  2  0
 35 39  1  0
 39 40  1  0
 39 41  1  0
 39 42  1  0
  9  4  1  0
 24  6  1  0
 32 29  1  0
 38 33  1  0
M  END
$$$$
