
     RDKit          3D

 42 45  0  0  0  0  0  0  0  0999 V2000
  -17.9128  -48.7686   -9.2846 C   0  0  0  0  0  0  0  0  0  0  0  0
  -17.9797  -47.7581   -8.3438 O   0  0  0  0  0  0  0  0  0  0  0  0
  -19.2108  -47.7056   -7.7021 C   0  0  0  0  0  0  0  0  0  0  0  0
  -19.6625  -46.2782   -7.6227 C   0  0  0  0  0  0  0  0  0  0  0  0
  -20.9246  -45.9473   -7.2401 C   0  0  0  0  0  0  0  0  0  0  0  0
  -21.3764  -44.6010   -7.1643 C   0  0  0  0  0  0  0  0  0  0  0  0
  -20.5112  -43.5840   -7.4915 C   0  0  0  0  0  0  0  0  0  0  0  0
  -19.2150  -43.8638   -7.8854 C   0  0  0  0  0  0  0  0  0  0  0  0
  -18.8391  -45.2391   -7.9344 C   0  0  0  0  0  0  0  0  0  0  0  0
  -18.1024  -42.9496   -8.2538 C   0  0  0  0  0  0  0  0  0  0  0  0
  -16.9274  -43.3889   -7.7943 O   0  0  0  0  0  0  0  0  0  0  0  0
  -17.9545  -41.7688   -8.9438 N   0  0  0  0  0  0  0  0  0  0  0  0
  -18.6458  -40.4759   -8.8212 C   0  0  1  0  0  0  0  0  0  0  0  0
  -19.0602  -40.1261   -7.4689 C   0  0  0  0  0  0  0  0  0  0  0  0
  -20.4463  -39.6396   -7.2262 C   0  0  2  0  0  0  0  0  0  0  0  0
  -21.3060  -39.2944   -8.3662 C   0  0  0  0  0  0  0  0  0  0  0  0
  -20.4769  -38.4428   -6.2382 C   0  0  0  0  0  0  0  0  0  0  0  0
  -21.2599  -38.8364   -5.0221 C   0  0  0  0  0  0  0  0  0  0  0  0
  -22.5668  -39.4947   -5.2765 C   0  0  0  0  0  0  0  0  0  0  0  0
  -22.6817  -40.8065   -4.5120 C   0  0  0  0  0  0  0  0  0  0  0  0
  -23.9103  -41.5680   -4.8906 C   0  0  0  0  0  0  0  0  0  0  0  0
  -23.7990  -42.4327   -6.1016 C   0  0  0  0  0  0  0  0  0  0  0  0
  -23.3892  -43.8137   -5.6754 C   0  0  0  0  0  0  0  0  0  0  0  0
  -22.7401  -44.5974   -6.7101 N   0  0  0  0  0  0  0  0  0  0  0  0
  -17.6570  -39.3757   -9.3477 C   0  0  2  0  0  0  0  0  0  0  0  0
  -18.5263  -38.2549   -9.4387 O   0  0  0  0  0  0  0  0  0  0  0  0
  -17.0211  -39.7206  -10.6141 C   0  0  0  0  0  0  0  0  0  0  0  0
  -15.6449  -39.6063  -10.7031 N   0  0  0  0  0  0  0  0  0  0  0  0
  -14.7255  -40.5560  -11.1202 C   0  0  0  0  0  0  0  0  0  0  0  0
  -15.1983  -41.0140  -12.5623 C   0  0  0  0  0  0  0  0  0  0  0  0
  -16.1629  -41.7546  -11.8451 O   0  0  0  0  0  0  0  0  0  0  0  0
  -15.1191  -42.0195  -10.9328 C   0  0  0  0  0  0  0  0  0  0  0  0
  -13.2852  -40.3267  -11.2006 C   0  0  0  0  0  0  0  0  0  0  0  0
  -12.6650  -39.3975  -10.3516 C   0  0  0  0  0  0  0  0  0  0  0  0
  -11.3404  -39.0872  -10.3919 C   0  0  0  0  0  0  0  0  0  0  0  0
  -10.5297  -39.7051  -11.3092 C   0  0  0  0  0  0  0  0  0  0  0  0
  -11.0827  -40.6283  -12.1705 C   0  0  0  0  0  0  0  0  0  0  0  0
  -12.4328  -40.9184  -12.1019 C   0  0  0  0  0  0  0  0  0  0  0  0
  -10.7195  -38.0813   -9.4810 C   0  0  0  0  0  0  0  0  0  0  0  0
   -9.3096  -38.4562   -9.1207 C   0  0  0  0  0  0  0  0  0  0  0  0
  -11.5038  -38.0169   -8.1672 C   0  0  0  0  0  0  0  0  0  0  0  0
  -10.7775  -36.7042  -10.1001 C   0  0  0  0  0  0  0  0  0  0  0  0
  1  2  1  0
  2  3  1  0
  3  4  1  0
  4  5  2  0
  5  6  1  0
  6  7  2  0
  7  8  1  0
  8  9  2  0
  8 10  1  0
 10 11  2  0
 10 12  1  0
 12 13  1  0
 13 14  1  1
 14 15  1  0
 15 16  1  6
 15 17  1  0
 17 18  1  0
 18 19  1  0
 19 20  1  0
 20 21  1  0
 21 22  1  0
 22 23  1  0
 23 24  1  0
 13 25  1  0
 25 26  1  6
 25 27  1  0
 27 28  1  0
 28 29  1  0
 29 30  1  0
 30 31  1  0
 31 32  1  0
 29 33  1  0
 33 34  2  0
 34 35  1  0
 35 36  2  0
 36 37  1  0
 37 38  2  0
 35 39  1  0
 39 40  1  0
 39 41  1  0
 39 42  1  0
  9  4  1  0
 24  6  1  0
 32 29  1  0
 38 33  1  0
M  END
$$$$
