
     RDKit          3D

 41 44  0  0  0  0  0  0  0  0999 V2000
  -23.8680  -43.2523   -2.7331 C   0  0  0  0  0  0  0  0  0  0  0  0
  -22.6656  -43.1221   -3.3777 O   0  0  0  0  0  0  0  0  0  0  0  0
  -22.6899  -42.2021   -4.3910 C   0  0  0  0  0  0  0  0  0  0  0  0
  -21.9022  -42.5903   -5.5928 C   0  0  0  0  0  0  0  0  0  0  0  0
  -20.7375  -41.9582   -5.9086 C   0  0  0  0  0  0  0  0  0  0  0  0
  -19.9139  -42.2817   -7.0328 C   0  0  0  0  0  0  0  0  0  0  0  0
  -20.3481  -43.3105   -7.8425 C   0  0  0  0  0  0  0  0  0  0  0  0
  -21.5118  -43.9466   -7.5304 C   0  0  0  0  0  0  0  0  0  0  0  0
  -22.2416  -45.0271   -8.1343 N   0  0  0  0  0  0  0  0  0  0  0  0
  -21.8117  -46.3498   -8.5140 C   0  0  0  0  0  0  0  0  0  0  0  0
  -21.9635  -47.3449   -7.3834 C   0  0  0  0  0  0  0  0  0  0  0  0
  -20.8029  -48.3253   -7.3301 C   0  0  0  0  0  0  0  0  0  0  0  0
  -19.5204  -47.5992   -7.0338 C   0  0  0  0  0  0  0  0  0  0  0  0
  -18.7693  -47.4569   -8.1989 O   0  0  0  0  0  0  0  0  0  0  0  0
  -17.5651  -46.8238   -7.9135 C   0  0  0  0  0  0  0  0  0  0  0  0
  -17.4425  -45.6518   -8.8465 C   0  0  0  0  0  0  0  0  0  0  0  0
  -17.0007  -44.3804   -8.1218 C   0  0  1  0  0  0  0  0  0  0  0  0
  -15.5616  -44.6484   -7.6899 C   0  0  0  0  0  0  0  0  0  0  0  0
  -16.9539  -43.2887   -9.1414 C   0  0  0  0  0  0  0  0  0  0  0  0
  -16.6381  -41.9550   -8.5479 C   0  0  2  0  0  0  0  0  0  0  0  0
  -17.3677  -41.5582   -7.3800 N   0  0  0  0  0  0  0  0  0  0  0  0
  -18.7182  -41.4206   -7.0955 C   0  0  0  0  0  0  0  0  0  0  0  0
  -18.9833  -40.1334   -6.7931 O   0  0  0  0  0  0  0  0  0  0  0  0
  -16.5673  -40.9007   -9.6474 C   0  0  2  0  0  0  0  0  0  0  0  0
  -15.2893  -40.9538  -10.1379 O   0  0  0  0  0  0  0  0  0  0  0  0
  -16.8947  -39.5819   -9.0169 C   0  0  0  0  0  0  0  0  0  0  0  0
  -17.6677  -38.6323   -9.5857 N   0  0  0  0  0  0  0  0  0  0  0  0
  -17.9966  -37.3400   -9.2253 C   0  0  0  0  0  0  0  0  0  0  0  0
  -17.6675  -36.7883   -7.8404 C   0  0  0  0  0  0  0  0  0  0  0  0
  -19.0649  -37.0336   -8.1903 C   0  0  0  0  0  0  0  0  0  0  0  0
  -18.0086  -36.3068  -10.3482 C   0  0  0  0  0  0  0  0  0  0  0  0
  -16.9602  -35.5250  -10.6885 C   0  0  0  0  0  0  0  0  0  0  0  0
  -17.0358  -34.6049  -11.7448 C   0  0  0  0  0  0  0  0  0  0  0  0
  -18.2076  -34.4964  -12.4532 C   0  0  0  0  0  0  0  0  0  0  0  0
  -19.2876  -35.2828  -12.1239 C   0  0  0  0  0  0  0  0  0  0  0  0
  -19.1739  -36.1815  -11.0721 C   0  0  0  0  0  0  0  0  0  0  0  0
  -15.8553  -33.7706  -12.0709 C   0  0  0  0  0  0  0  0  0  0  0  0
  -16.0438  -32.9687  -13.3410 C   0  0  0  0  0  0  0  0  0  0  0  0
  -14.5848  -34.5976  -12.1052 C   0  0  0  0  0  0  0  0  0  0  0  0
  -15.6474  -32.7435  -10.9479 C   0  0  0  0  0  0  0  0  0  0  0  0
  -22.2471  -43.5569   -6.4087 N   0  0  0  0  0  0  0  0  0  0  0  0
  1  2  1  0
  2  3  1  0
  3  4  1  0
  4  5  2  0
  5  6  1  0
  6  7  2  0
  7  8  1  0
  8  9  1  0
  9 10  1  0
 10 11  1  0
 11 12  1  0
 12 13  1  0
 13 14  1  0
 14 15  1  0
 15 16  1  0
 16 17  1  0
 17 18  1  6
 17 19  1  0
 20 19  1  6
 20 21  1  0
 21 22  1  0
 22 23  2  0
 20 24  1  0
 24 25  1  1
 24 26  1  0
 26 27  1  0
 27 28  1  0
 28 29  1  0
 29 30  1  0
 28 31  1  0
 31 32  2  0
 32 33  1  0
 33 34  2  0
 34 35  1  0
 35 36  2  0
 33 37  1  0
 37 38  1  0
 37 39  1  0
 37 40  1  0
  8 41  2  0
 22  6  1  0
 30 28  1  0
 36 31  1  0
 41  4  1  0
M  END
$$$$
