
     RDKit          3D

 41 44  0  0  0  0  0  0  0  0999 V2000
  -17.6393  -45.1730  -11.8221 C   0  0  0  0  0  0  0  0  0  0  0  0
  -17.2306  -44.3024  -12.7982 O   0  0  0  0  0  0  0  0  0  0  0  0
  -18.0822  -43.2452  -12.9738 C   0  0  0  0  0  0  0  0  0  0  0  0
  -17.6028  -41.9651  -12.3847 C   0  0  0  0  0  0  0  0  0  0  0  0
  -17.3059  -41.8648  -11.0589 C   0  0  0  0  0  0  0  0  0  0  0  0
  -16.8240  -40.6792  -10.4195 C   0  0  0  0  0  0  0  0  0  0  0  0
  -16.6546  -39.5691  -11.2205 C   0  0  0  0  0  0  0  0  0  0  0  0
  -16.9491  -39.6645  -12.5472 C   0  0  0  0  0  0  0  0  0  0  0  0
  -16.8939  -38.7358  -13.6423 N   0  0  0  0  0  0  0  0  0  0  0  0
  -15.8136  -37.9032  -14.1097 C   0  0  0  0  0  0  0  0  0  0  0  0
  -14.9462  -38.6128  -15.1273 C   0  0  0  0  0  0  0  0  0  0  0  0
  -13.4726  -38.2885  -14.9423 C   0  0  0  0  0  0  0  0  0  0  0  0
  -12.9916  -38.7910  -13.6097 C   0  0  0  0  0  0  0  0  0  0  0  0
  -12.8827  -37.7334  -12.7088 O   0  0  0  0  0  0  0  0  0  0  0  0
  -12.3966  -38.1948  -11.4910 C   0  0  0  0  0  0  0  0  0  0  0  0
  -13.3490  -37.7331  -10.4240 C   0  0  0  0  0  0  0  0  0  0  0  0
  -13.6986  -38.8492   -9.4395 C   0  0  1  0  0  0  0  0  0  0  0  0
  -12.4069  -39.1237   -8.6744 C   0  0  0  0  0  0  0  0  0  0  0  0
  -14.6733  -38.2800   -8.4599 C   0  0  0  0  0  0  0  0  0  0  0  0
  -15.1872  -39.2984   -7.4958 C   0  0  2  0  0  0  0  0  0  0  0  0
  -15.6414  -40.5484   -8.0296 N   0  0  0  0  0  0  0  0  0  0  0  0
  -16.5906  -40.8958   -8.9794 C   0  0  0  0  0  0  0  0  0  0  0  0
  -17.5540  -41.6395   -8.3986 O   0  0  0  0  0  0  0  0  0  0  0  0
  -16.1418  -38.6407   -6.5051 C   0  0  2  0  0  0  0  0  0  0  0  0
  -15.3898  -38.3417   -5.3998 O   0  0  0  0  0  0  0  0  0  0  0  0
  -17.2310  -39.6283   -6.2186 C   0  0  0  0  0  0  0  0  0  0  0  0
  -18.4858  -39.5482   -6.7103 N   0  0  0  0  0  0  0  0  0  0  0  0
  -19.6292  -40.2972   -6.5103 C   0  0  0  0  0  0  0  0  0  0  0  0
  -19.8947  -41.0127   -5.1882 C   0  0  0  0  0  0  0  0  0  0  0  0
  -19.5951  -41.8095   -6.3759 C   0  0  0  0  0  0  0  0  0  0  0  0
  -20.8765  -39.8414   -7.2622 C   0  0  0  0  0  0  0  0  0  0  0  0
  -20.9667  -38.7069   -7.9907 C   0  0  0  0  0  0  0  0  0  0  0  0
  -22.1423  -38.3562   -8.6710 C   0  0  0  0  0  0  0  0  0  0  0  0
  -23.2315  -39.1896   -8.5952 C   0  0  0  0  0  0  0  0  0  0  0  0
  -23.1617  -40.3501   -7.8592 C   0  0  0  0  0  0  0  0  0  0  0  0
  -21.9808  -40.6626   -7.1999 C   0  0  0  0  0  0  0  0  0  0  0  0
  -22.1851  -37.0973   -9.4517 C   0  0  0  0  0  0  0  0  0  0  0  0
  -23.0088  -36.0221   -8.7755 C   0  0  0  0  0  0  0  0  0  0  0  0
  -22.6365  -37.3451  -10.8780 C   0  0  0  0  0  0  0  0  0  0  0  0
  -20.7608  -36.5332   -9.5630 C   0  0  0  0  0  0  0  0  0  0  0  0
  -17.4149  -40.8689  -13.0792 N   0  0  0  0  0  0  0  0  0  0  0  0
  1  2  1  0
  2  3  1  0
  3  4  1  0
  4  5  2  0
  5  6  1  0
  6  7  2  0
  7  8  1  0
  8  9  1  0
  9 10  1  0
 10 11  1  0
 11 12  1  0
 12 13  1  0
 13 14  1  0
 14 15  1  0
 15 16  1  0
 16 17  1  0
 17 18  1  1
 17 19  1  0
 20 19  1  6
 20 21  1  0
 21 22  1  0
 22 23  2  0
 20 24  1  0
 24 25  1  1
 24 26  1  0
 26 27  1  0
 27 28  1  0
 28 29  1  0
 29 30  1  0
 28 31  1  0
 31 32  2  0
 32 33  1  0
 33 34  2  0
 34 35  1  0
 35 36  2  0
 33 37  1  0
 37 38  1  0
 37 39  1  0
 37 40  1  0
  8 41  2  0
 22  6  1  0
 30 28  1  0
 36 31  1  0
 41  4  1  0
M  END
$$$$
