
     RDKit          3D

 41 44  0  0  0  0  0  0  0  0999 V2000
  -19.4934  -48.4196   -5.9710 C   0  0  0  0  0  0  0  0  0  0  0  0
  -19.2047  -47.8507   -7.1839 O   0  0  0  0  0  0  0  0  0  0  0  0
  -20.1460  -46.9470   -7.5973 C   0  0  0  0  0  0  0  0  0  0  0  0
  -19.9064  -45.5534   -7.1324 C   0  0  0  0  0  0  0  0  0  0  0  0
  -19.3006  -44.6350   -7.9357 C   0  0  0  0  0  0  0  0  0  0  0  0
  -19.0501  -43.2741   -7.5722 C   0  0  0  0  0  0  0  0  0  0  0  0
  -19.4591  -42.8841   -6.3139 C   0  0  0  0  0  0  0  0  0  0  0  0
  -20.0665  -43.7987   -5.5071 C   0  0  0  0  0  0  0  0  0  0  0  0
  -20.6033  -43.7413   -4.1755 N   0  0  0  0  0  0  0  0  0  0  0  0
  -21.5581  -42.8338   -3.5896 C   0  0  0  0  0  0  0  0  0  0  0  0
  -22.9830  -43.3137   -3.7656 C   0  0  0  0  0  0  0  0  0  0  0  0
  -23.9358  -42.1674   -4.0638 C   0  0  0  0  0  0  0  0  0  0  0  0
  -23.5822  -41.5234   -5.3754 C   0  0  0  0  0  0  0  0  0  0  0  0
  -22.9100  -40.3228   -5.1547 O   0  0  0  0  0  0  0  0  0  0  0  0
  -22.6229  -39.7091   -6.3684 C   0  0  0  0  0  0  0  0  0  0  0  0
  -21.1500  -39.4101   -6.3825 C   0  0  0  0  0  0  0  0  0  0  0  0
  -20.4916  -39.8125   -7.7022 C   0  0  1  0  0  0  0  0  0  0  0  0
  -21.0635  -38.8519   -8.7412 C   0  0  0  0  0  0  0  0  0  0  0  0
  -19.0348  -39.5030   -7.5772 C   0  0  0  0  0  0  0  0  0  0  0  0
  -18.2443  -39.9478   -8.7638 C   0  0  2  0  0  0  0  0  0  0  0  0
  -18.4634  -41.2792   -9.2465 N   0  0  0  0  0  0  0  0  0  0  0  0
  -18.3862  -42.5346   -8.6619 C   0  0  0  0  0  0  0  0  0  0  0  0
  -17.4342  -43.2602   -9.2832 O   0  0  0  0  0  0  0  0  0  0  0  0
  -16.7790  -39.5647   -8.5852 C   0  0  2  0  0  0  0  0  0  0  0  0
  -16.7824  -38.3401   -7.9712 O   0  0  0  0  0  0  0  0  0  0  0  0
  -16.1617  -39.5303   -9.9495 C   0  0  0  0  0  0  0  0  0  0  0  0
  -15.6893  -38.4163  -10.5483 N   0  0  0  0  0  0  0  0  0  0  0  0
  -15.0730  -38.1845  -11.7626 C   0  0  0  0  0  0  0  0  0  0  0  0
  -15.7279  -38.5883  -13.0812 C   0  0  0  0  0  0  0  0  0  0  0  0
  -14.5408  -39.3115  -12.6304 C   0  0  0  0  0  0  0  0  0  0  0  0
  -14.1664  -36.9593  -11.8381 C   0  0  0  0  0  0  0  0  0  0  0  0
  -12.9335  -36.9447  -12.3910 C   0  0  0  0  0  0  0  0  0  0  0  0
  -12.1588  -35.7762  -12.4405 C   0  0  0  0  0  0  0  0  0  0  0  0
  -12.6680  -34.6146  -11.9132 C   0  0  0  0  0  0  0  0  0  0  0  0
  -13.9214  -34.6066  -11.3454 C   0  0  0  0  0  0  0  0  0  0  0  0
  -14.6575  -35.7832  -11.3152 C   0  0  0  0  0  0  0  0  0  0  0  0
  -10.8114  -35.8202  -13.0557 C   0  0  0  0  0  0  0  0  0  0  0  0
  -10.2012  -37.2052  -13.0196 C   0  0  0  0  0  0  0  0  0  0  0  0
   -9.8911  -34.7787  -12.4492 C   0  0  0  0  0  0  0  0  0  0  0  0
  -10.9312  -35.4482  -14.5412 C   0  0  0  0  0  0  0  0  0  0  0  0
  -20.2669  -45.1068   -5.9535 N   0  0  0  0  0  0  0  0  0  0  0  0
  1  2  1  0
  2  3  1  0
  3  4  1  0
  4  5  2  0
  5  6  1  0
  6  7  2  0
  7  8  1  0
  8  9  1  0
  9 10  1  0
 10 11  1  0
 11 12  1  0
 12 13  1  0
 13 14  1  0
 14 15  1  0
 15 16  1  0
 16 17  1  0
 17 18  1  6
 17 19  1  0
 20 19  1  1
 20 21  1  0
 21 22  1  0
 22 23  2  0
 20 24  1  0
 24 25  1  6
 24 26  1  0
 26 27  1  0
 27 28  1  0
 28 29  1  0
 29 30  1  0
 28 31  1  0
 31 32  2  0
 32 33  1  0
 33 34  2  0
 34 35  1  0
 35 36  2  0
 33 37  1  0
 37 38  1  0
 37 39  1  0
 37 40  1  0
  8 41  2  0
 22  6  1  0
 30 28  1  0
 36 31  1  0
 41  4  1  0
M  END
$$$$
