
     RDKit          3D

 41 44  0  0  0  0  0  0  0  0999 V2000
  -21.1867  -44.7805  -10.6688 C   0  0  0  0  0  0  0  0  0  0  0  0
  -20.1075  -45.3261  -10.0241 O   0  0  0  0  0  0  0  0  0  0  0  0
  -18.9906  -45.4100  -10.8111 C   0  0  0  0  0  0  0  0  0  0  0  0
  -18.1874  -44.1585  -10.8740 C   0  0  0  0  0  0  0  0  0  0  0  0
  -18.2217  -43.2454   -9.8636 C   0  0  0  0  0  0  0  0  0  0  0  0
  -17.4684  -42.0294   -9.8388 C   0  0  0  0  0  0  0  0  0  0  0  0
  -16.6552  -41.7826  -10.9252 C   0  0  0  0  0  0  0  0  0  0  0  0
  -16.6165  -42.6933  -11.9379 C   0  0  0  0  0  0  0  0  0  0  0  0
  -15.9042  -42.7575  -13.1841 N   0  0  0  0  0  0  0  0  0  0  0  0
  -14.4958  -42.6301  -13.4647 C   0  0  0  0  0  0  0  0  0  0  0  0
  -13.7769  -43.9602  -13.3891 C   0  0  0  0  0  0  0  0  0  0  0  0
  -12.4020  -43.8275  -12.7545 C   0  0  0  0  0  0  0  0  0  0  0  0
  -12.5285  -43.3769  -11.3259 C   0  0  0  0  0  0  0  0  0  0  0  0
  -12.2204  -42.0219  -11.2210 O   0  0  0  0  0  0  0  0  0  0  0  0
  -12.2962  -41.6189   -9.8929 C   0  0  0  0  0  0  0  0  0  0  0  0
  -13.2052  -40.4232   -9.8382 C   0  0  0  0  0  0  0  0  0  0  0  0
  -14.2246  -40.5240   -8.7035 C   0  0  1  0  0  0  0  0  0  0  0  0
  -13.4048  -40.4115   -7.4211 C   0  0  0  0  0  0  0  0  0  0  0  0
  -15.0860  -39.3050   -8.7789 C   0  0  0  0  0  0  0  0  0  0  0  0
  -16.2030  -39.3229   -7.7876 C   0  0  2  0  0  0  0  0  0  0  0  0
  -16.9857  -40.5194   -7.6907 N   0  0  0  0  0  0  0  0  0  0  0  0
  -17.7190  -41.2608   -8.6053 C   0  0  0  0  0  0  0  0  0  0  0  0
  -19.0171  -41.2656   -8.2397 O   0  0  0  0  0  0  0  0  0  0  0  0
  -17.0129  -38.0351   -7.8941 C   0  0  2  0  0  0  0  0  0  0  0  0
  -16.1361  -37.0163   -7.6296 O   0  0  0  0  0  0  0  0  0  0  0  0
  -18.1207  -38.1254   -6.8900 C   0  0  0  0  0  0  0  0  0  0  0  0
  -19.3253  -37.5304   -7.0235 N   0  0  0  0  0  0  0  0  0  0  0  0
  -20.5894  -37.8406   -6.5607 C   0  0  0  0  0  0  0  0  0  0  0  0
  -21.6265  -36.7558   -6.2809 C   0  0  0  0  0  0  0  0  0  0  0  0
  -21.0482  -37.4885   -5.1565 C   0  0  0  0  0  0  0  0  0  0  0  0
  -21.1609  -39.1845   -7.0035 C   0  0  0  0  0  0  0  0  0  0  0  0
  -21.4348  -40.2169   -6.1757 C   0  0  0  0  0  0  0  0  0  0  0  0
  -21.9753  -41.4216   -6.6495 C   0  0  0  0  0  0  0  0  0  0  0  0
  -22.2341  -41.5551   -7.9919 C   0  0  0  0  0  0  0  0  0  0  0  0
  -21.9629  -40.5165   -8.8529 C   0  0  0  0  0  0  0  0  0  0  0  0
  -21.4282  -39.3401   -8.3459 C   0  0  0  0  0  0  0  0  0  0  0  0
  -22.2520  -42.5215   -5.6959 C   0  0  0  0  0  0  0  0  0  0  0  0
  -21.7057  -42.2418   -4.3120 C   0  0  0  0  0  0  0  0  0  0  0  0
  -21.7745  -43.8558   -6.2354 C   0  0  0  0  0  0  0  0  0  0  0  0
  -23.7723  -42.6650   -5.5305 C   0  0  0  0  0  0  0  0  0  0  0  0
  -17.3908  -43.8537  -11.8698 N   0  0  0  0  0  0  0  0  0  0  0  0
  1  2  1  0
  2  3  1  0
  3  4  1  0
  4  5  2  0
  5  6  1  0
  6  7  2  0
  7  8  1  0
  8  9  1  0
  9 10  1  0
 10 11  1  0
 11 12  1  0
 12 13  1  0
 13 14  1  0
 14 15  1  0
 15 16  1  0
 16 17  1  0
 17 18  1  1
 17 19  1  0
 20 19  1  6
 20 21  1  0
 21 22  1  0
 22 23  2  0
 20 24  1  0
 24 25  1  1
 24 26  1  0
 26 27  1  0
 27 28  1  0
 28 29  1  0
 29 30  1  0
 28 31  1  0
 31 32  2  0
 32 33  1  0
 33 34  2  0
 34 35  1  0
 35 36  2  0
 33 37  1  0
 37 38  1  0
 37 39  1  0
 37 40  1  0
  8 41  2  0
 22  6  1  0
 30 28  1  0
 36 31  1  0
 41  4  1  0
M  END
$$$$
