
     RDKit          3D

 41 44  0  0  0  0  0  0  0  0999 V2000
  -22.0479  -40.3073  -14.9401 C   0  0  0  0  0  0  0  0  0  0  0  0
  -21.4256  -40.5720  -13.7482 O   0  0  0  0  0  0  0  0  0  0  0  0
  -22.1863  -41.3239  -12.8940 C   0  0  0  0  0  0  0  0  0  0  0  0
  -21.5513  -41.5856  -11.5735 C   0  0  0  0  0  0  0  0  0  0  0  0
  -20.5557  -40.7868  -11.0975 C   0  0  0  0  0  0  0  0  0  0  0  0
  -19.9071  -40.9589   -9.8340 C   0  0  0  0  0  0  0  0  0  0  0  0
  -20.3351  -42.0153   -9.0573 C   0  0  0  0  0  0  0  0  0  0  0  0
  -21.3312  -42.8166   -9.5284 C   0  0  0  0  0  0  0  0  0  0  0  0
  -22.0032  -43.9727   -9.0025 N   0  0  0  0  0  0  0  0  0  0  0  0
  -22.6609  -44.1775   -7.7360 C   0  0  0  0  0  0  0  0  0  0  0  0
  -24.1221  -43.7844   -7.7824 C   0  0  0  0  0  0  0  0  0  0  0  0
  -24.5668  -43.0987   -6.5006 C   0  0  0  0  0  0  0  0  0  0  0  0
  -23.8257  -41.8035   -6.3182 C   0  0  0  0  0  0  0  0  0  0  0  0
  -22.8205  -41.9559   -5.3652 O   0  0  0  0  0  0  0  0  0  0  0  0
  -22.1658  -40.7457   -5.1676 C   0  0  0  0  0  0  0  0  0  0  0  0
  -20.6949  -40.9969   -5.3471 C   0  0  0  0  0  0  0  0  0  0  0  0
  -20.0309  -39.9370   -6.2261 C   0  0  1  0  0  0  0  0  0  0  0  0
  -20.0786  -38.6519   -5.4042 C   0  0  0  0  0  0  0  0  0  0  0  0
  -18.5915  -40.3168   -6.3586 C   0  0  0  0  0  0  0  0  0  0  0  0
  -17.8391  -39.4204   -7.2865 C   0  0  2  0  0  0  0  0  0  0  0  0
  -18.4311  -39.1352   -8.5601 N   0  0  0  0  0  0  0  0  0  0  0  0
  -18.8777  -39.9274   -9.6074 C   0  0  0  0  0  0  0  0  0  0  0  0
  -18.1546  -39.6570  -10.7132 O   0  0  0  0  0  0  0  0  0  0  0  0
  -16.3742  -39.8411   -7.3414 C   0  0  2  0  0  0  0  0  0  0  0  0
  -15.7051  -38.9839   -6.5083 O   0  0  0  0  0  0  0  0  0  0  0  0
  -15.9349  -39.7273   -8.7689 C   0  0  0  0  0  0  0  0  0  0  0  0
  -14.8162  -39.0913   -9.1772 N   0  0  0  0  0  0  0  0  0  0  0  0
  -14.0715  -39.1406  -10.3396 C   0  0  0  0  0  0  0  0  0  0  0  0
  -13.8979  -40.4393  -11.1231 C   0  0  0  0  0  0  0  0  0  0  0  0
  -12.7455  -39.8763  -10.4229 C   0  0  0  0  0  0  0  0  0  0  0  0
  -14.0463  -37.8679  -11.1813 C   0  0  0  0  0  0  0  0  0  0  0  0
  -13.3185  -36.7665  -10.8929 C   0  0  0  0  0  0  0  0  0  0  0  0
  -13.3304  -35.6344  -11.7212 C   0  0  0  0  0  0  0  0  0  0  0  0
  -14.1024  -35.6461  -12.8572 C   0  0  0  0  0  0  0  0  0  0  0  0
  -14.8514  -36.7572  -13.1702 C   0  0  0  0  0  0  0  0  0  0  0  0
  -14.8135  -37.8581  -12.3255 C   0  0  0  0  0  0  0  0  0  0  0  0
  -12.5150  -34.4530  -11.3530 C   0  0  0  0  0  0  0  0  0  0  0  0
  -13.0543  -33.7313  -10.1365 C   0  0  0  0  0  0  0  0  0  0  0  0
  -12.3306  -33.5178  -12.5323 C   0  0  0  0  0  0  0  0  0  0  0  0
  -11.1021  -34.9226  -10.9757 C   0  0  0  0  0  0  0  0  0  0  0  0
  -21.9032  -42.5665  -10.7777 N   0  0  0  0  0  0  0  0  0  0  0  0
  1  2  1  0
  2  3  1  0
  3  4  1  0
  4  5  2  0
  5  6  1  0
  6  7  2  0
  7  8  1  0
  8  9  1  0
  9 10  1  0
 10 11  1  0
 11 12  1  0
 12 13  1  0
 13 14  1  0
 14 15  1  0
 15 16  1  0
 16 17  1  0
 17 18  1  1
 17 19  1  0
 20 19  1  6
 20 21  1  0
 21 22  1  0
 22 23  2  0
 20 24  1  0
 24 25  1  1
 24 26  1  0
 26 27  1  0
 27 28  1  0
 28 29  1  0
 29 30  1  0
 28 31  1  0
 31 32  2  0
 32 33  1  0
 33 34  2  0
 34 35  1  0
 35 36  2  0
 33 37  1  0
 37 38  1  0
 37 39  1  0
 37 40  1  0
  8 41  2  0
 22  6  1  0
 30 28  1  0
 36 31  1  0
 41  4  1  0
M  END
$$$$
