
     RDKit          3D

 41 44  0  0  0  0  0  0  0  0999 V2000
  -18.6199  -47.8634  -11.0983 C   0  0  0  0  0  0  0  0  0  0  0  0
  -18.9800  -46.6176  -10.6553 O   0  0  0  0  0  0  0  0  0  0  0  0
  -19.9035  -46.6467   -9.6453 C   0  0  0  0  0  0  0  0  0  0  0  0
  -19.7666  -45.5438   -8.6551 C   0  0  0  0  0  0  0  0  0  0  0  0
  -19.1029  -44.3951   -8.9643 C   0  0  0  0  0  0  0  0  0  0  0  0
  -18.9424  -43.2834   -8.0781 C   0  0  0  0  0  0  0  0  0  0  0  0
  -19.5077  -43.4034   -6.8257 C   0  0  0  0  0  0  0  0  0  0  0  0
  -20.1735  -44.5500   -6.5120 C   0  0  0  0  0  0  0  0  0  0  0  0
  -20.8630  -45.0034   -5.3357 N   0  0  0  0  0  0  0  0  0  0  0  0
  -21.9095  -44.3791   -4.5652 C   0  0  0  0  0  0  0  0  0  0  0  0
  -23.2873  -44.7343   -5.0821 C   0  0  0  0  0  0  0  0  0  0  0  0
  -24.2371  -43.5486   -5.0287 C   0  0  0  0  0  0  0  0  0  0  0  0
  -23.7554  -42.4535   -5.9389 C   0  0  0  0  0  0  0  0  0  0  0  0
  -23.1543  -41.4403   -5.1945 O   0  0  0  0  0  0  0  0  0  0  0  0
  -22.7491  -40.4099   -6.0348 C   0  0  0  0  0  0  0  0  0  0  0  0
  -21.2955  -40.1490   -5.7557 C   0  0  0  0  0  0  0  0  0  0  0  0
  -20.4750  -40.0201   -7.0391 C   0  0  1  0  0  0  0  0  0  0  0  0
  -20.9544  -38.7253   -7.6893 C   0  0  0  0  0  0  0  0  0  0  0  0
  -19.0539  -39.8029   -6.6306 C   0  0  0  0  0  0  0  0  0  0  0  0
  -18.1163  -39.7663   -7.7927 C   0  0  2  0  0  0  0  0  0  0  0  0
  -18.2328  -40.8053   -8.7729 N   0  0  0  0  0  0  0  0  0  0  0  0
  -18.1818  -42.1900   -8.7113 C   0  0  0  0  0  0  0  0  0  0  0  0
  -17.1401  -42.6327   -9.4445 O   0  0  0  0  0  0  0  0  0  0  0  0
  -16.6955  -39.5021   -7.3057 C   0  0  2  0  0  0  0  0  0  0  0  0
  -16.6620  -38.1820   -6.9414 O   0  0  0  0  0  0  0  0  0  0  0  0
  -15.7729  -39.8157   -8.4434 C   0  0  0  0  0  0  0  0  0  0  0  0
  -15.1950  -38.8898   -9.2381 N   0  0  0  0  0  0  0  0  0  0  0  0
  -14.1169  -38.9247  -10.1010 C   0  0  0  0  0  0  0  0  0  0  0  0
  -13.5774  -40.2418  -10.6530 C   0  0  0  0  0  0  0  0  0  0  0  0
  -12.7692  -39.4935   -9.6927 C   0  0  0  0  0  0  0  0  0  0  0  0
  -13.9473  -37.7188  -11.0207 C   0  0  0  0  0  0  0  0  0  0  0  0
  -12.8146  -37.4131  -11.6911 C   0  0  0  0  0  0  0  0  0  0  0  0
  -12.7331  -36.2949  -12.5343 C   0  0  0  0  0  0  0  0  0  0  0  0
  -13.8355  -35.4892  -12.6833 C   0  0  0  0  0  0  0  0  0  0  0  0
  -14.9994  -35.7819  -12.0101 C   0  0  0  0  0  0  0  0  0  0  0  0
  -15.0408  -36.8972  -11.1847 C   0  0  0  0  0  0  0  0  0  0  0  0
  -11.4633  -36.0061  -13.2416 C   0  0  0  0  0  0  0  0  0  0  0  0
  -10.8913  -37.2269  -13.9303 C   0  0  0  0  0  0  0  0  0  0  0  0
  -10.4536  -35.3485  -12.3211 C   0  0  0  0  0  0  0  0  0  0  0  0
  -11.7357  -34.9811  -14.3527 C   0  0  0  0  0  0  0  0  0  0  0  0
  -20.2765  -45.5817   -7.4477 N   0  0  0  0  0  0  0  0  0  0  0  0
  1  2  1  0
  2  3  1  0
  3  4  1  0
  4  5  2  0
  5  6  1  0
  6  7  2  0
  7  8  1  0
  8  9  1  0
  9 10  1  0
 10 11  1  0
 11 12  1  0
 12 13  1  0
 13 14  1  0
 14 15  1  0
 15 16  1  0
 16 17  1  0
 17 18  1  1
 17 19  1  0
 20 19  1  1
 20 21  1  0
 21 22  1  0
 22 23  2  0
 20 24  1  0
 24 25  1  6
 24 26  1  0
 26 27  1  0
 27 28  1  0
 28 29  1  0
 29 30  1  0
 28 31  1  0
 31 32  2  0
 32 33  1  0
 33 34  2  0
 34 35  1  0
 35 36  2  0
 33 37  1  0
 37 38  1  0
 37 39  1  0
 37 40  1  0
  8 41  2  0
 22  6  1  0
 30 28  1  0
 36 31  1  0
 41  4  1  0
M  END
$$$$
