
     RDKit          3D

 41 44  0  0  0  0  0  0  0  0999 V2000
  -17.1363  -48.1609   -6.7169 C   0  0  0  0  0  0  0  0  0  0  0  0
  -17.2853  -46.9817   -7.3990 O   0  0  0  0  0  0  0  0  0  0  0  0
  -16.5636  -46.9320   -8.5611 C   0  0  0  0  0  0  0  0  0  0  0  0
  -16.4081  -45.5656   -9.1304 C   0  0  0  0  0  0  0  0  0  0  0  0
  -16.6260  -44.4552   -8.3719 C   0  0  0  0  0  0  0  0  0  0  0  0
  -16.4813  -43.1099   -8.8368 C   0  0  0  0  0  0  0  0  0  0  0  0
  -16.0925  -42.9472  -10.1501 C   0  0  0  0  0  0  0  0  0  0  0  0
  -15.8723  -44.0547  -10.9126 C   0  0  0  0  0  0  0  0  0  0  0  0
  -15.4710  -44.2519  -12.2782 N   0  0  0  0  0  0  0  0  0  0  0  0
  -14.3438  -43.7266  -13.0076 C   0  0  0  0  0  0  0  0  0  0  0  0
  -13.1240  -44.6152  -12.8892 C   0  0  0  0  0  0  0  0  0  0  0  0
  -11.8428  -43.8071  -12.7613 C   0  0  0  0  0  0  0  0  0  0  0  0
  -11.8580  -43.0036  -11.4908 C   0  0  0  0  0  0  0  0  0  0  0  0
  -12.1485  -41.6696  -11.7702 O   0  0  0  0  0  0  0  0  0  0  0  0
  -12.1190  -40.9217  -10.5989 C   0  0  0  0  0  0  0  0  0  0  0  0
  -13.4218  -40.1777  -10.5090 C   0  0  0  0  0  0  0  0  0  0  0  0
  -14.0449  -40.2703   -9.1161 C   0  0  1  0  0  0  0  0  0  0  0  0
  -13.1119  -39.4727   -8.2091 C   0  0  0  0  0  0  0  0  0  0  0  0
  -15.3423  -39.5300   -9.1665 C   0  0  0  0  0  0  0  0  0  0  0  0
  -16.1160  -39.6301   -7.8928 C   0  0  2  0  0  0  0  0  0  0  0  0
  -16.2702  -40.9301   -7.3099 N   0  0  0  0  0  0  0  0  0  0  0  0
  -16.7820  -42.1330   -7.7736 C   0  0  0  0  0  0  0  0  0  0  0  0
  -17.8476  -42.4844   -7.0255 O   0  0  0  0  0  0  0  0  0  0  0  0
  -17.4039  -38.8208   -8.0025 C   0  0  2  0  0  0  0  0  0  0  0  0
  -17.1549  -37.6301   -7.3726 O   0  0  0  0  0  0  0  0  0  0  0  0
  -18.4841  -39.6170   -7.3368 C   0  0  0  0  0  0  0  0  0  0  0  0
  -19.7456  -39.1790   -7.1372 N   0  0  0  0  0  0  0  0  0  0  0  0
  -20.5282  -39.0332   -6.0084 C   0  0  0  0  0  0  0  0  0  0  0  0
  -20.4455  -37.7841   -5.1345 C   0  0  0  0  0  0  0  0  0  0  0  0
  -19.9424  -39.0508   -4.6073 C   0  0  0  0  0  0  0  0  0  0  0  0
  -21.8944  -39.7124   -6.0401 C   0  0  0  0  0  0  0  0  0  0  0  0
  -22.1826  -40.8334   -6.7375 C   0  0  0  0  0  0  0  0  0  0  0  0
  -23.4591  -41.4145   -6.7089 C   0  0  0  0  0  0  0  0  0  0  0  0
  -24.4428  -40.8284   -5.9503 C   0  0  0  0  0  0  0  0  0  0  0  0
  -24.1712  -39.6866   -5.2321 C   0  0  0  0  0  0  0  0  0  0  0  0
  -22.8958  -39.1413   -5.2860 C   0  0  0  0  0  0  0  0  0  0  0  0
  -23.7191  -42.6422   -7.4971 C   0  0  0  0  0  0  0  0  0  0  0  0
  -25.1815  -43.0337   -7.4971 C   0  0  0  0  0  0  0  0  0  0  0  0
  -22.8259  -43.7846   -7.0538 C   0  0  0  0  0  0  0  0  0  0  0  0
  -23.3509  -42.3777   -8.9646 C   0  0  0  0  0  0  0  0  0  0  0  0
  -16.0405  -45.3291  -10.3666 N   0  0  0  0  0  0  0  0  0  0  0  0
  1  2  1  0
  2  3  1  0
  3  4  1  0
  4  5  2  0
  5  6  1  0
  6  7  2  0
  7  8  1  0
  8  9  1  0
  9 10  1  0
 10 11  1  0
 11 12  1  0
 12 13  1  0
 13 14  1  0
 14 15  1  0
 15 16  1  0
 16 17  1  0
 17 18  1  1
 17 19  1  0
 20 19  1  6
 20 21  1  0
 21 22  1  0
 22 23  2  0
 20 24  1  0
 24 25  1  1
 24 26  1  0
 26 27  1  0
 27 28  1  0
 28 29  1  0
 29 30  1  0
 28 31  1  0
 31 32  2  0
 32 33  1  0
 33 34  2  0
 34 35  1  0
 35 36  2  0
 33 37  1  0
 37 38  1  0
 37 39  1  0
 37 40  1  0
  8 41  2  0
 22  6  1  0
 30 28  1  0
 36 31  1  0
 41  4  1  0
M  END
$$$$
