
     RDKit          3D

 41 44  0  0  0  0  0  0  0  0999 V2000
  -23.6800  -45.1556  -11.4869 C   0  0  0  0  0  0  0  0  0  0  0  0
  -23.0569  -44.0198  -11.0401 O   0  0  0  0  0  0  0  0  0  0  0  0
  -21.6909  -44.1024  -11.0704 C   0  0  0  0  0  0  0  0  0  0  0  0
  -20.9941  -42.7883  -11.0166 C   0  0  0  0  0  0  0  0  0  0  0  0
  -20.3768  -42.3619   -9.8795 C   0  0  0  0  0  0  0  0  0  0  0  0
  -19.6719  -41.1237   -9.7506 C   0  0  0  0  0  0  0  0  0  0  0  0
  -19.6257  -40.3183  -10.8694 C   0  0  0  0  0  0  0  0  0  0  0  0
  -20.2407  -40.7406  -12.0094 C   0  0  0  0  0  0  0  0  0  0  0  0
  -20.3893  -40.1742  -13.3216 N   0  0  0  0  0  0  0  0  0  0  0  0
  -19.4001  -39.6655  -14.2388 C   0  0  0  0  0  0  0  0  0  0  0  0
  -18.8587  -40.7462  -15.1502 C   0  0  0  0  0  0  0  0  0  0  0  0
  -17.3655  -40.5917  -15.3898 C   0  0  0  0  0  0  0  0  0  0  0  0
  -16.6104  -40.7615  -14.1010 C   0  0  0  0  0  0  0  0  0  0  0  0
  -16.2116  -39.5193  -13.6113 O   0  0  0  0  0  0  0  0  0  0  0  0
  -15.4767  -39.6830  -12.4428 C   0  0  0  0  0  0  0  0  0  0  0  0
  -16.1056  -38.8120  -11.3917 C   0  0  0  0  0  0  0  0  0  0  0  0
  -16.2818  -39.5465  -10.0626 C   0  0  1  0  0  0  0  0  0  0  0  0
  -14.8650  -39.7722   -9.5421 C   0  0  0  0  0  0  0  0  0  0  0  0
  -16.9460  -38.5948   -9.1209 C   0  0  0  0  0  0  0  0  0  0  0  0
  -17.2793  -39.2194   -7.8057 C   0  0  2  0  0  0  0  0  0  0  0  0
  -17.9362  -40.4929   -7.8227 N   0  0  0  0  0  0  0  0  0  0  0  0
  -19.1101  -40.9573   -8.3971 C   0  0  0  0  0  0  0  0  0  0  0  0
  -19.9525  -41.3659   -7.4265 O   0  0  0  0  0  0  0  0  0  0  0  0
  -17.9152  -38.1833   -6.8849 C   0  0  2  0  0  0  0  0  0  0  0  0
  -17.2495  -37.0099   -7.1223 O   0  0  0  0  0  0  0  0  0  0  0  0
  -17.7444  -38.6759   -5.4807 C   0  0  0  0  0  0  0  0  0  0  0  0
  -18.6940  -38.6047   -4.5236 N   0  0  0  0  0  0  0  0  0  0  0  0
  -19.0664  -39.4501   -3.4965 C   0  0  0  0  0  0  0  0  0  0  0  0
  -18.6340  -39.1949   -2.0548 C   0  0  0  0  0  0  0  0  0  0  0  0
  -18.0674  -40.3351   -2.7718 C   0  0  0  0  0  0  0  0  0  0  0  0
  -20.4103  -40.1554   -3.6546 C   0  0  0  0  0  0  0  0  0  0  0  0
  -21.1761  -40.5948   -2.6316 C   0  0  0  0  0  0  0  0  0  0  0  0
  -22.4116  -41.2226   -2.8490 C   0  0  0  0  0  0  0  0  0  0  0  0
  -22.8556  -41.3946   -4.1374 C   0  0  0  0  0  0  0  0  0  0  0  0
  -22.0920  -40.9547   -5.1943 C   0  0  0  0  0  0  0  0  0  0  0  0
  -20.8749  -40.3382   -4.9385 C   0  0  0  0  0  0  0  0  0  0  0  0
  -23.2074  -41.6878   -1.6887 C   0  0  0  0  0  0  0  0  0  0  0  0
  -24.5271  -42.3053   -2.0994 C   0  0  0  0  0  0  0  0  0  0  0  0
  -23.3914  -40.5844   -0.6650 C   0  0  0  0  0  0  0  0  0  0  0  0
  -22.4282  -42.7955   -0.9640 C   0  0  0  0  0  0  0  0  0  0  0  0
  -20.9051  -41.9688  -12.0362 N   0  0  0  0  0  0  0  0  0  0  0  0
  1  2  1  0
  2  3  1  0
  3  4  1  0
  4  5  2  0
  5  6  1  0
  6  7  2  0
  7  8  1  0
  8  9  1  0
  9 10  1  0
 10 11  1  0
 11 12  1  0
 12 13  1  0
 13 14  1  0
 14 15  1  0
 15 16  1  0
 16 17  1  0
 17 18  1  1
 17 19  1  0
 20 19  1  6
 20 21  1  0
 21 22  1  0
 22 23  2  0
 20 24  1  0
 24 25  1  1
 24 26  1  0
 26 27  1  0
 27 28  1  0
 28 29  1  0
 29 30  1  0
 28 31  1  0
 31 32  2  0
 32 33  1  0
 33 34  2  0
 34 35  1  0
 35 36  2  0
 33 37  1  0
 37 38  1  0
 37 39  1  0
 37 40  1  0
  8 41  2  0
 22  6  1  0
 30 28  1  0
 36 31  1  0
 41  4  1  0
M  END
$$$$
