
     RDKit          3D

 41 44  0  0  0  0  0  0  0  0999 V2000
  -17.8414  -46.2467  -11.9285 C   0  0  0  0  0  0  0  0  0  0  0  0
  -17.0469  -45.5815  -12.8253 O   0  0  0  0  0  0  0  0  0  0  0  0
  -17.4538  -44.2961  -13.0617 C   0  0  0  0  0  0  0  0  0  0  0  0
  -16.5339  -43.2527  -12.5321 C   0  0  0  0  0  0  0  0  0  0  0  0
  -16.6677  -42.7699  -11.2653 C   0  0  0  0  0  0  0  0  0  0  0  0
  -15.8165  -41.7825  -10.6758 C   0  0  0  0  0  0  0  0  0  0  0  0
  -14.7931  -41.2976  -11.4632 C   0  0  0  0  0  0  0  0  0  0  0  0
  -14.6545  -41.7781  -12.7306 C   0  0  0  0  0  0  0  0  0  0  0  0
  -13.7302  -41.5054  -13.7964 N   0  0  0  0  0  0  0  0  0  0  0  0
  -12.2886  -41.5154  -13.8105 C   0  0  0  0  0  0  0  0  0  0  0  0
  -11.7312  -42.8816  -14.1488 C   0  0  0  0  0  0  0  0  0  0  0  0
  -10.4940  -43.2093  -13.3287 C   0  0  0  0  0  0  0  0  0  0  0  0
  -10.8421  -43.2868  -11.8683 C   0  0  0  0  0  0  0  0  0  0  0  0
  -10.4274  -42.1284  -11.2140 O   0  0  0  0  0  0  0  0  0  0  0  0
  -10.7118  -42.2218   -9.8566 C   0  0  0  0  0  0  0  0  0  0  0  0
  -11.4926  -40.9951   -9.4765 C   0  0  0  0  0  0  0  0  0  0  0  0
  -12.7122  -41.3298   -8.6178 C   0  0  1  0  0  0  0  0  0  0  0  0
  -12.1414  -41.8186   -7.2895 C   0  0  0  0  0  0  0  0  0  0  0  0
  -13.4198  -40.0428   -8.3412 C   0  0  0  0  0  0  0  0  0  0  0  0
  -14.6997  -40.2341   -7.5954 C   0  0  2  0  0  0  0  0  0  0  0  0
  -15.6005  -41.2424   -8.0702 N   0  0  0  0  0  0  0  0  0  0  0  0
  -16.2179  -41.4776   -9.2898 C   0  0  0  0  0  0  0  0  0  0  0  0
  -17.5557  -41.4033   -9.1362 O   0  0  0  0  0  0  0  0  0  0  0  0
  -15.3443  -38.8810   -7.3140 C   0  0  2  0  0  0  0  0  0  0  0  0
  -14.5922  -38.3044   -6.3248 O   0  0  0  0  0  0  0  0  0  0  0  0
  -16.7575  -39.1437   -6.8928 C   0  0  0  0  0  0  0  0  0  0  0  0
  -17.7725  -38.2636   -7.0268 N   0  0  0  0  0  0  0  0  0  0  0  0
  -19.1040  -38.4008   -7.3682 C   0  0  0  0  0  0  0  0  0  0  0  0
  -20.2207  -38.0424   -6.3909 C   0  0  0  0  0  0  0  0  0  0  0  0
  -20.0014  -39.4468   -6.7302 C   0  0  0  0  0  0  0  0  0  0  0  0
  -19.4473  -38.2095   -8.8428 C   0  0  0  0  0  0  0  0  0  0  0  0
  -19.8454  -37.0432   -9.3972 C   0  0  0  0  0  0  0  0  0  0  0  0
  -20.1304  -36.9344  -10.7664 C   0  0  0  0  0  0  0  0  0  0  0  0
  -20.0003  -38.0438  -11.5658 C   0  0  0  0  0  0  0  0  0  0  0  0
  -19.5961  -39.2416  -11.0222 C   0  0  0  0  0  0  0  0  0  0  0  0
  -19.3235  -39.3094   -9.6628 C   0  0  0  0  0  0  0  0  0  0  0  0
  -20.5669  -35.6305  -11.3190 C   0  0  0  0  0  0  0  0  0  0  0  0
  -19.4442  -34.8882  -12.0120 C   0  0  0  0  0  0  0  0  0  0  0  0
  -21.2424  -34.7790  -10.2616 C   0  0  0  0  0  0  0  0  0  0  0  0
  -21.6370  -35.8790  -12.3924 C   0  0  0  0  0  0  0  0  0  0  0  0
  -15.5381  -42.7442  -13.2168 N   0  0  0  0  0  0  0  0  0  0  0  0
  1  2  1  0
  2  3  1  0
  3  4  1  0
  4  5  2  0
  5  6  1  0
  6  7  2  0
  7  8  1  0
  8  9  1  0
  9 10  1  0
 10 11  1  0
 11 12  1  0
 12 13  1  0
 13 14  1  0
 14 15  1  0
 15 16  1  0
 16 17  1  0
 17 18  1  1
 17 19  1  0
 20 19  1  6
 20 21  1  0
 21 22  1  0
 22 23  2  0
 20 24  1  0
 24 25  1  1
 24 26  1  0
 26 27  1  0
 27 28  1  0
 28 29  1  0
 29 30  1  0
 28 31  1  0
 31 32  2  0
 32 33  1  0
 33 34  2  0
 34 35  1  0
 35 36  2  0
 33 37  1  0
 37 38  1  0
 37 39  1  0
 37 40  1  0
  8 41  2  0
 22  6  1  0
 30 28  1  0
 36 31  1  0
 41  4  1  0
M  END
$$$$
