
     RDKit          3D

 41 44  0  0  0  0  0  0  0  0999 V2000
  -19.5719  -47.1564  -10.5113 C   0  0  0  0  0  0  0  0  0  0  0  0
  -20.1464  -46.8854   -9.2970 O   0  0  0  0  0  0  0  0  0  0  0  0
  -19.2339  -46.7105   -8.2918 C   0  0  0  0  0  0  0  0  0  0  0  0
  -19.2936  -45.3775   -7.6323 C   0  0  0  0  0  0  0  0  0  0  0  0
  -18.7278  -44.2792   -8.2063 C   0  0  0  0  0  0  0  0  0  0  0  0
  -18.7562  -42.9623   -7.6480 C   0  0  0  0  0  0  0  0  0  0  0  0
  -19.4082  -42.8155   -6.4414 C   0  0  0  0  0  0  0  0  0  0  0  0
  -19.9767  -43.9106   -5.8637 C   0  0  0  0  0  0  0  0  0  0  0  0
  -20.7114  -44.1180   -4.6463 N   0  0  0  0  0  0  0  0  0  0  0  0
  -21.8767  -43.4440   -4.1301 C   0  0  0  0  0  0  0  0  0  0  0  0
  -23.1631  -44.0870   -4.6027 C   0  0  0  0  0  0  0  0  0  0  0  0
  -24.2306  -43.0532   -4.9229 C   0  0  0  0  0  0  0  0  0  0  0  0
  -23.7898  -42.1868   -6.0696 C   0  0  0  0  0  0  0  0  0  0  0  0
  -23.3596  -40.9482   -5.5975 O   0  0  0  0  0  0  0  0  0  0  0  0
  -22.9938  -40.1345   -6.6635 C   0  0  0  0  0  0  0  0  0  0  0  0
  -21.6028  -39.6353   -6.3899 C   0  0  0  0  0  0  0  0  0  0  0  0
  -20.6962  -39.7510   -7.6153 C   0  0  1  0  0  0  0  0  0  0  0  0
  -21.2502  -38.7413   -8.6167 C   0  0  0  0  0  0  0  0  0  0  0  0
  -19.3437  -39.2633   -7.2071 C   0  0  0  0  0  0  0  0  0  0  0  0
  -18.3216  -39.4212   -8.2847 C   0  0  2  0  0  0  0  0  0  0  0  0
  -18.2492  -40.6880   -8.9509 N   0  0  0  0  0  0  0  0  0  0  0  0
  -18.0617  -41.9907   -8.5134 C   0  0  0  0  0  0  0  0  0  0  0  0
  -16.9229  -42.4817   -9.0433 O   0  0  0  0  0  0  0  0  0  0  0  0
  -16.9807  -38.8680   -7.8140 C   0  0  2  0  0  0  0  0  0  0  0  0
  -17.0288  -37.5184   -8.0441 O   0  0  0  0  0  0  0  0  0  0  0  0
  -15.9146  -39.5567   -8.6096 C   0  0  0  0  0  0  0  0  0  0  0  0
  -15.9527  -39.7357   -9.9472 N   0  0  0  0  0  0  0  0  0  0  0  0
  -15.6261  -38.9276  -11.0189 C   0  0  0  0  0  0  0  0  0  0  0  0
  -16.0564  -39.2747  -12.4419 C   0  0  0  0  0  0  0  0  0  0  0  0
  -14.6406  -39.3602  -12.0903 C   0  0  0  0  0  0  0  0  0  0  0  0
  -15.4982  -37.4353  -10.7265 C   0  0  0  0  0  0  0  0  0  0  0  0
  -15.2050  -36.4910  -11.6475 C   0  0  0  0  0  0  0  0  0  0  0  0
  -15.1183  -35.1317  -11.3116 C   0  0  0  0  0  0  0  0  0  0  0  0
  -15.3387  -34.7501  -10.0106 C   0  0  0  0  0  0  0  0  0  0  0  0
  -15.6389  -35.6950   -9.0564 C   0  0  0  0  0  0  0  0  0  0  0  0
  -15.7155  -37.0303   -9.4278 C   0  0  0  0  0  0  0  0  0  0  0  0
  -14.7894  -34.1403  -12.3627 C   0  0  0  0  0  0  0  0  0  0  0  0
  -14.7983  -32.7184  -11.8434 C   0  0  0  0  0  0  0  0  0  0  0  0
  -15.6802  -34.3060  -13.5787 C   0  0  0  0  0  0  0  0  0  0  0  0
  -13.3601  -34.4007  -12.8613 C   0  0  0  0  0  0  0  0  0  0  0  0
  -19.8953  -45.1571   -6.4884 N   0  0  0  0  0  0  0  0  0  0  0  0
  1  2  1  0
  2  3  1  0
  3  4  1  0
  4  5  2  0
  5  6  1  0
  6  7  2  0
  7  8  1  0
  8  9  1  0
  9 10  1  0
 10 11  1  0
 11 12  1  0
 12 13  1  0
 13 14  1  0
 14 15  1  0
 15 16  1  0
 16 17  1  0
 17 18  1  6
 17 19  1  0
 20 19  1  1
 20 21  1  0
 21 22  1  0
 22 23  2  0
 20 24  1  0
 24 25  1  6
 24 26  1  0
 26 27  1  0
 27 28  1  0
 28 29  1  0
 29 30  1  0
 28 31  1  0
 31 32  2  0
 32 33  1  0
 33 34  2  0
 34 35  1  0
 35 36  2  0
 33 37  1  0
 37 38  1  0
 37 39  1  0
 37 40  1  0
  8 41  2  0
 22  6  1  0
 30 28  1  0
 36 31  1  0
 41  4  1  0
M  END
$$$$
