
     RDKit          3D

 41 44  0  0  0  0  0  0  0  0999 V2000
  -17.7674  -47.5919   -9.2978 C   0  0  0  0  0  0  0  0  0  0  0  0
  -17.8121  -46.3031   -9.7614 O   0  0  0  0  0  0  0  0  0  0  0  0
  -17.1066  -46.1181  -10.9197 C   0  0  0  0  0  0  0  0  0  0  0  0
  -16.4884  -44.7708  -11.0546 C   0  0  0  0  0  0  0  0  0  0  0  0
  -16.7271  -43.7892  -10.1406 C   0  0  0  0  0  0  0  0  0  0  0  0
  -16.1595  -42.4768  -10.1879 C   0  0  0  0  0  0  0  0  0  0  0  0
  -15.3126  -42.2062  -11.2424 C   0  0  0  0  0  0  0  0  0  0  0  0
  -15.0698  -43.1850  -12.1586 C   0  0  0  0  0  0  0  0  0  0  0  0
  -14.2662  -43.2495  -13.3480 N   0  0  0  0  0  0  0  0  0  0  0  0
  -12.8738  -42.9380  -13.5547 C   0  0  0  0  0  0  0  0  0  0  0  0
  -11.9794  -44.1343  -13.3085 C   0  0  0  0  0  0  0  0  0  0  0  0
  -10.6878  -43.7434  -12.6085 C   0  0  0  0  0  0  0  0  0  0  0  0
  -10.9820  -43.1950  -11.2401 C   0  0  0  0  0  0  0  0  0  0  0  0
  -10.8796  -41.8053  -11.2478 O   0  0  0  0  0  0  0  0  0  0  0  0
  -11.1095  -41.3049   -9.9715 C   0  0  0  0  0  0  0  0  0  0  0  0
  -12.1819  -40.2581  -10.0867 C   0  0  0  0  0  0  0  0  0  0  0  0
  -13.2568  -40.4115   -9.0106 C   0  0  1  0  0  0  0  0  0  0  0  0
  -12.5578  -40.0675   -7.6983 C   0  0  0  0  0  0  0  0  0  0  0  0
  -14.2760  -39.3459   -9.2544 C   0  0  0  0  0  0  0  0  0  0  0  0
  -15.4486  -39.4447   -8.3346 C   0  0  2  0  0  0  0  0  0  0  0  0
  -16.0569  -40.7318   -8.1700 N   0  0  0  0  0  0  0  0  0  0  0  0
  -16.6074  -41.6506   -9.0513 C   0  0  0  0  0  0  0  0  0  0  0  0
  -17.9147  -41.8176   -8.7653 O   0  0  0  0  0  0  0  0  0  0  0  0
  -16.4245  -38.3063   -8.6128 C   0  0  2  0  0  0  0  0  0  0  0  0
  -15.7625  -37.1538   -8.2813 O   0  0  0  0  0  0  0  0  0  0  0  0
  -17.6363  -38.5461   -7.7656 C   0  0  0  0  0  0  0  0  0  0  0  0
  -18.7577  -39.1657   -8.1915 N   0  0  0  0  0  0  0  0  0  0  0  0
  -20.0024  -39.3620   -7.6254 C   0  0  0  0  0  0  0  0  0  0  0  0
  -20.2195  -40.3743   -6.5035 C   0  0  0  0  0  0  0  0  0  0  0  0
  -20.7892  -40.6461   -7.8214 C   0  0  0  0  0  0  0  0  0  0  0  0
  -20.9295  -38.1503   -7.5931 C   0  0  0  0  0  0  0  0  0  0  0  0
  -22.1235  -38.1090   -6.9618 C   0  0  0  0  0  0  0  0  0  0  0  0
  -22.9194  -36.9538   -6.9593 C   0  0  0  0  0  0  0  0  0  0  0  0
  -22.4720  -35.8334   -7.6159 C   0  0  0  0  0  0  0  0  0  0  0  0
  -21.2590  -35.8531   -8.2653 C   0  0  0  0  0  0  0  0  0  0  0  0
  -20.5003  -37.0153   -8.2453 C   0  0  0  0  0  0  0  0  0  0  0  0
  -24.2223  -36.9675   -6.2534 C   0  0  0  0  0  0  0  0  0  0  0  0
  -25.1801  -37.9929   -6.8216 C   0  0  0  0  0  0  0  0  0  0  0  0
  -24.8386  -35.5830   -6.2012 C   0  0  0  0  0  0  0  0  0  0  0  0
  -23.9898  -37.3698   -4.7894 C   0  0  0  0  0  0  0  0  0  0  0  0
  -15.6728  -44.4377  -12.0256 N   0  0  0  0  0  0  0  0  0  0  0  0
  1  2  1  0
  2  3  1  0
  3  4  1  0
  4  5  2  0
  5  6  1  0
  6  7  2  0
  7  8  1  0
  8  9  1  0
  9 10  1  0
 10 11  1  0
 11 12  1  0
 12 13  1  0
 13 14  1  0
 14 15  1  0
 15 16  1  0
 16 17  1  0
 17 18  1  1
 17 19  1  0
 20 19  1  6
 20 21  1  0
 21 22  1  0
 22 23  2  0
 20 24  1  0
 24 25  1  1
 24 26  1  0
 26 27  1  0
 27 28  1  0
 28 29  1  0
 29 30  1  0
 28 31  1  0
 31 32  2  0
 32 33  1  0
 33 34  2  0
 34 35  1  0
 35 36  2  0
 33 37  1  0
 37 38  1  0
 37 39  1  0
 37 40  1  0
  8 41  2  0
 22  6  1  0
 30 28  1  0
 36 31  1  0
 41  4  1  0
M  END
$$$$
