
     RDKit          3D

 41 44  0  0  0  0  0  0  0  0999 V2000
  -19.5047  -47.4253  -10.3745 C   0  0  0  0  0  0  0  0  0  0  0  0
  -19.8161  -47.1251   -9.0741 O   0  0  0  0  0  0  0  0  0  0  0  0
  -18.7414  -46.6935   -8.3445 C   0  0  0  0  0  0  0  0  0  0  0  0
  -18.9113  -45.3445   -7.7388 C   0  0  0  0  0  0  0  0  0  0  0  0
  -18.6990  -44.2119   -8.4654 C   0  0  0  0  0  0  0  0  0  0  0  0
  -18.8575  -42.8812   -7.9645 C   0  0  0  0  0  0  0  0  0  0  0  0
  -19.2542  -42.7579   -6.6493 C   0  0  0  0  0  0  0  0  0  0  0  0
  -19.4688  -43.8876   -5.9186 C   0  0  0  0  0  0  0  0  0  0  0  0
  -19.8753  -44.1257   -4.5611 N   0  0  0  0  0  0  0  0  0  0  0  0
  -21.0106  -43.6300   -3.8236 C   0  0  0  0  0  0  0  0  0  0  0  0
  -22.2222  -44.5252   -3.9727 C   0  0  0  0  0  0  0  0  0  0  0  0
  -23.5096  -43.7246   -4.0851 C   0  0  0  0  0  0  0  0  0  0  0  0
  -23.4948  -42.8864   -5.3330 C   0  0  0  0  0  0  0  0  0  0  0  0
  -23.2171  -41.5582   -5.0156 O   0  0  0  0  0  0  0  0  0  0  0  0
  -23.2470  -40.7786   -6.1661 C   0  0  0  0  0  0  0  0  0  0  0  0
  -21.9501  -40.0215   -6.2287 C   0  0  0  0  0  0  0  0  0  0  0  0
  -21.3191  -40.0707   -7.6203 C   0  0  1  0  0  0  0  0  0  0  0  0
  -22.2543  -39.2563   -8.5099 C   0  0  0  0  0  0  0  0  0  0  0  0
  -20.0284  -39.3213   -7.5428 C   0  0  0  0  0  0  0  0  0  0  0  0
  -19.2474  -39.3799   -8.8146 C   0  0  2  0  0  0  0  0  0  0  0  0
  -19.0793  -40.6621   -9.4321 N   0  0  0  0  0  0  0  0  0  0  0  0
  -18.5597  -41.8729   -8.9989 C   0  0  0  0  0  0  0  0  0  0  0  0
  -17.4873  -42.1947   -9.7507 O   0  0  0  0  0  0  0  0  0  0  0  0
  -17.9670  -38.5632   -8.6760 C   0  0  2  0  0  0  0  0  0  0  0  0
  -18.3627  -37.3001   -8.3231 O   0  0  0  0  0  0  0  0  0  0  0  0
  -17.2698  -38.6062  -10.0011 C   0  0  0  0  0  0  0  0  0  0  0  0
  -16.2532  -37.7926  -10.3580 N   0  0  0  0  0  0  0  0  0  0  0  0
  -14.9026  -38.0002  -10.5606 C   0  0  0  0  0  0  0  0  0  0  0  0
  -14.3444  -39.3878  -10.8667 C   0  0  0  0  0  0  0  0  0  0  0  0
  -14.0441  -38.7737   -9.5752 C   0  0  0  0  0  0  0  0  0  0  0  0
  -14.1242  -36.8392  -11.1728 C   0  0  0  0  0  0  0  0  0  0  0  0
  -12.8333  -36.8990  -11.5679 C   0  0  0  0  0  0  0  0  0  0  0  0
  -12.1827  -35.7951  -12.1389 C   0  0  0  0  0  0  0  0  0  0  0  0
  -12.8773  -34.6214  -12.3018 C   0  0  0  0  0  0  0  0  0  0  0  0
  -14.1927  -34.5382  -11.9066 C   0  0  0  0  0  0  0  0  0  0  0  0
  -14.8018  -35.6523  -11.3455 C   0  0  0  0  0  0  0  0  0  0  0  0
  -10.7642  -35.9173  -12.5502 C   0  0  0  0  0  0  0  0  0  0  0  0
  -10.0638  -34.5773  -12.6255 C   0  0  0  0  0  0  0  0  0  0  0  0
  -10.6271  -36.7026  -13.8401 C   0  0  0  0  0  0  0  0  0  0  0  0
  -10.0081  -36.7320  -11.4902 C   0  0  0  0  0  0  0  0  0  0  0  0
  -19.2871  -45.1451   -6.4985 N   0  0  0  0  0  0  0  0  0  0  0  0
  1  2  1  0
  2  3  1  0
  3  4  1  0
  4  5  2  0
  5  6  1  0
  6  7  2  0
  7  8  1  0
  8  9  1  0
  9 10  1  0
 10 11  1  0
 11 12  1  0
 12 13  1  0
 13 14  1  0
 14 15  1  0
 15 16  1  0
 16 17  1  0
 17 18  1  6
 17 19  1  0
 20 19  1  1
 20 21  1  0
 21 22  1  0
 22 23  2  0
 20 24  1  0
 24 25  1  6
 24 26  1  0
 26 27  1  0
 27 28  1  0
 28 29  1  0
 29 30  1  0
 28 31  1  0
 31 32  2  0
 32 33  1  0
 33 34  2  0
 34 35  1  0
 35 36  2  0
 33 37  1  0
 37 38  1  0
 37 39  1  0
 37 40  1  0
  8 41  2  0
 22  6  1  0
 30 28  1  0
 36 31  1  0
 41  4  1  0
M  END
$$$$
