
     RDKit          3D

 41 44  0  0  0  0  0  0  0  0999 V2000
  -17.6031  -48.2992   -8.4623 C   0  0  0  0  0  0  0  0  0  0  0  0
  -17.6742  -47.1273   -9.1690 O   0  0  0  0  0  0  0  0  0  0  0  0
  -18.9288  -46.5801   -9.1878 C   0  0  0  0  0  0  0  0  0  0  0  0
  -19.1240  -45.4566   -8.2313 C   0  0  0  0  0  0  0  0  0  0  0  0
  -18.5639  -44.2347   -8.4528 C   0  0  0  0  0  0  0  0  0  0  0  0
  -18.7173  -43.1006   -7.5943 C   0  0  0  0  0  0  0  0  0  0  0  0
  -19.4917  -43.2780   -6.4667 C   0  0  0  0  0  0  0  0  0  0  0  0
  -20.0549  -44.4978   -6.2412 C   0  0  0  0  0  0  0  0  0  0  0  0
  -20.8936  -45.0230   -5.1993 N   0  0  0  0  0  0  0  0  0  0  0  0
  -22.1383  -44.5315   -4.6628 C   0  0  0  0  0  0  0  0  0  0  0  0
  -23.3359  -45.0706   -5.4156 C   0  0  0  0  0  0  0  0  0  0  0  0
  -24.4203  -44.0190   -5.5856 C   0  0  0  0  0  0  0  0  0  0  0  0
  -23.9158  -42.8817   -6.4293 C   0  0  0  0  0  0  0  0  0  0  0  0
  -23.6008  -41.7893   -5.6234 O   0  0  0  0  0  0  0  0  0  0  0  0
  -23.1759  -40.7252   -6.4104 C   0  0  0  0  0  0  0  0  0  0  0  0
  -21.8471  -40.2727   -5.8732 C   0  0  0  0  0  0  0  0  0  0  0  0
  -20.8195  -40.0534   -6.9836 C   0  0  1  0  0  0  0  0  0  0  0  0
  -21.3254  -38.8408   -7.7600 C   0  0  0  0  0  0  0  0  0  0  0  0
  -19.5416  -39.6468   -6.3239 C   0  0  0  0  0  0  0  0  0  0  0  0
  -18.4116  -39.5023   -7.2898 C   0  0  2  0  0  0  0  0  0  0  0  0
  -18.2066  -40.5597   -8.2351 N   0  0  0  0  0  0  0  0  0  0  0  0
  -17.9939  -41.9249   -8.1136 C   0  0  0  0  0  0  0  0  0  0  0  0
  -16.7839  -42.2365   -8.6212 O   0  0  0  0  0  0  0  0  0  0  0  0
  -17.1549  -39.0481   -6.5549 C   0  0  2  0  0  0  0  0  0  0  0  0
  -17.5792  -38.1764   -5.5872 O   0  0  0  0  0  0  0  0  0  0  0  0
  -16.2595  -38.4030   -7.5677 C   0  0  0  0  0  0  0  0  0  0  0  0
  -14.9916  -38.7891   -7.8251 N   0  0  0  0  0  0  0  0  0  0  0  0
  -14.0236  -38.3339   -8.6992 C   0  0  0  0  0  0  0  0  0  0  0  0
  -12.6362  -38.9682   -8.7561 C   0  0  0  0  0  0  0  0  0  0  0  0
  -12.7738  -37.6149   -8.2224 C   0  0  0  0  0  0  0  0  0  0  0  0
  -14.5234  -37.7495  -10.0173 C   0  0  0  0  0  0  0  0  0  0  0  0
  -13.7290  -37.2611  -10.9952 C   0  0  0  0  0  0  0  0  0  0  0  0
  -14.2562  -36.7520  -12.1913 C   0  0  0  0  0  0  0  0  0  0  0  0
  -15.6176  -36.7508  -12.3739 C   0  0  0  0  0  0  0  0  0  0  0  0
  -16.4454  -37.2434  -11.3912 C   0  0  0  0  0  0  0  0  0  0  0  0
  -15.8858  -37.7386  -10.2213 C   0  0  0  0  0  0  0  0  0  0  0  0
  -13.3370  -36.2256  -13.2276 C   0  0  0  0  0  0  0  0  0  0  0  0
  -11.9628  -35.9076  -12.6778 C   0  0  0  0  0  0  0  0  0  0  0  0
  -13.9437  -35.0430  -13.9574 C   0  0  0  0  0  0  0  0  0  0  0  0
  -13.1254  -37.3057  -14.2990 C   0  0  0  0  0  0  0  0  0  0  0  0
  -19.8462  -45.5457   -7.1406 N   0  0  0  0  0  0  0  0  0  0  0  0
  1  2  1  0
  2  3  1  0
  3  4  1  0
  4  5  2  0
  5  6  1  0
  6  7  2  0
  7  8  1  0
  8  9  1  0
  9 10  1  0
 10 11  1  0
 11 12  1  0
 12 13  1  0
 13 14  1  0
 14 15  1  0
 15 16  1  0
 16 17  1  0
 17 18  1  6
 17 19  1  0
 20 19  1  1
 20 21  1  0
 21 22  1  0
 22 23  2  0
 20 24  1  0
 24 25  1  1
 24 26  1  0
 26 27  1  0
 27 28  1  0
 28 29  1  0
 29 30  1  0
 28 31  1  0
 31 32  2  0
 32 33  1  0
 33 34  2  0
 34 35  1  0
 35 36  2  0
 33 37  1  0
 37 38  1  0
 37 39  1  0
 37 40  1  0
  8 41  2  0
 22  6  1  0
 30 28  1  0
 36 31  1  0
 41  4  1  0
M  END
$$$$
