
     RDKit          3D

 41 44  0  0  0  0  0  0  0  0999 V2000
  -16.4176  -47.1410  -12.8789 C   0  0  0  0  0  0  0  0  0  0  0  0
  -16.1402  -45.8615  -12.4739 O   0  0  0  0  0  0  0  0  0  0  0  0
  -15.7844  -45.0317  -13.5027 C   0  0  0  0  0  0  0  0  0  0  0  0
  -15.5058  -43.6283  -13.0925 C   0  0  0  0  0  0  0  0  0  0  0  0
  -15.7951  -43.1888  -11.8359 C   0  0  0  0  0  0  0  0  0  0  0  0
  -15.5428  -41.8642  -11.3580 C   0  0  0  0  0  0  0  0  0  0  0  0
  -14.9647  -40.9842  -12.2491 C   0  0  0  0  0  0  0  0  0  0  0  0
  -14.6725  -41.4192  -13.5067 C   0  0  0  0  0  0  0  0  0  0  0  0
  -14.0858  -40.7924  -14.6590 N   0  0  0  0  0  0  0  0  0  0  0  0
  -12.8496  -40.0642  -14.8006 C   0  0  0  0  0  0  0  0  0  0  0  0
  -11.6880  -40.9736  -15.1405 C   0  0  0  0  0  0  0  0  0  0  0  0
  -10.4136  -40.5596  -14.4227 C   0  0  0  0  0  0  0  0  0  0  0  0
  -10.5855  -40.6949  -12.9354 C   0  0  0  0  0  0  0  0  0  0  0  0
  -10.7906  -39.4423  -12.3601 O   0  0  0  0  0  0  0  0  0  0  0  0
  -10.9059  -39.5664  -10.9805 C   0  0  0  0  0  0  0  0  0  0  0  0
  -12.1840  -38.8877  -10.5744 C   0  0  0  0  0  0  0  0  0  0  0  0
  -13.0032  -39.7342   -9.6000 C   0  0  1  0  0  0  0  0  0  0  0  0
  -12.1852  -39.7611   -8.3118 C   0  0  0  0  0  0  0  0  0  0  0  0
  -14.2558  -38.9741   -9.3055 C   0  0  0  0  0  0  0  0  0  0  0  0
  -15.2071  -39.7371   -8.4431 C   0  0  2  0  0  0  0  0  0  0  0  0
  -15.4843  -41.0966   -8.8017 N   0  0  0  0  0  0  0  0  0  0  0  0
  -15.9620  -41.7050   -9.9530 C   0  0  0  0  0  0  0  0  0  0  0  0
  -17.1345  -42.3146   -9.6839 O   0  0  0  0  0  0  0  0  0  0  0  0
  -16.4397  -38.8879   -8.1516 C   0  0  2  0  0  0  0  0  0  0  0  0
  -15.9992  -37.8309   -7.3997 O   0  0  0  0  0  0  0  0  0  0  0  0
  -17.4130  -39.7587   -7.4181 C   0  0  0  0  0  0  0  0  0  0  0  0
  -18.6834  -39.9886   -7.8132 N   0  0  0  0  0  0  0  0  0  0  0  0
  -19.7175  -40.7360   -7.2839 C   0  0  0  0  0  0  0  0  0  0  0  0
  -19.4651  -41.8294   -6.2489 C   0  0  0  0  0  0  0  0  0  0  0  0
  -19.8920  -42.2126   -7.5929 C   0  0  0  0  0  0  0  0  0  0  0  0
  -21.0688  -40.0360   -7.1705 C   0  0  0  0  0  0  0  0  0  0  0  0
  -21.8577  -40.0545   -6.0735 C   0  0  0  0  0  0  0  0  0  0  0  0
  -23.0838  -39.3742   -6.0326 C   0  0  0  0  0  0  0  0  0  0  0  0
  -23.4933  -38.6689   -7.1378 C   0  0  0  0  0  0  0  0  0  0  0  0
  -22.7057  -38.6364   -8.2657 C   0  0  0  0  0  0  0  0  0  0  0  0
  -21.4990  -39.3225   -8.2676 C   0  0  0  0  0  0  0  0  0  0  0  0
  -23.9095  -39.4328   -4.8034 C   0  0  0  0  0  0  0  0  0  0  0  0
  -24.4201  -40.8280   -4.5126 C   0  0  0  0  0  0  0  0  0  0  0  0
  -25.0320  -38.4141   -4.8410 C   0  0  0  0  0  0  0  0  0  0  0  0
  -23.0384  -39.0409   -3.6006 C   0  0  0  0  0  0  0  0  0  0  0  0
  -14.9574  -42.7346  -13.8797 N   0  0  0  0  0  0  0  0  0  0  0  0
  1  2  1  0
  2  3  1  0
  3  4  1  0
  4  5  2  0
  5  6  1  0
  6  7  2  0
  7  8  1  0
  8  9  1  0
  9 10  1  0
 10 11  1  0
 11 12  1  0
 12 13  1  0
 13 14  1  0
 14 15  1  0
 15 16  1  0
 16 17  1  0
 17 18  1  1
 17 19  1  0
 20 19  1  6
 20 21  1  0
 21 22  1  0
 22 23  2  0
 20 24  1  0
 24 25  1  1
 24 26  1  0
 26 27  1  0
 27 28  1  0
 28 29  1  0
 29 30  1  0
 28 31  1  0
 31 32  2  0
 32 33  1  0
 33 34  2  0
 34 35  1  0
 35 36  2  0
 33 37  1  0
 37 38  1  0
 37 39  1  0
 37 40  1  0
  8 41  2  0
 22  6  1  0
 30 28  1  0
 36 31  1  0
 41  4  1  0
M  END
$$$$
