
     RDKit          3D

 41 44  0  0  0  0  0  0  0  0999 V2000
  -19.0360  -47.1920  -11.0779 C   0  0  0  0  0  0  0  0  0  0  0  0
  -19.3377  -46.0747  -10.3441 O   0  0  0  0  0  0  0  0  0  0  0  0
  -19.4161  -46.3138   -8.9986 C   0  0  0  0  0  0  0  0  0  0  0  0
  -19.3761  -45.0895   -8.1531 C   0  0  0  0  0  0  0  0  0  0  0  0
  -18.7340  -43.9630   -8.5708 C   0  0  0  0  0  0  0  0  0  0  0  0
  -18.6644  -42.7422   -7.8282 C   0  0  0  0  0  0  0  0  0  0  0  0
  -19.2997  -42.7253   -6.6039 C   0  0  0  0  0  0  0  0  0  0  0  0
  -19.9442  -43.8491   -6.1821 C   0  0  0  0  0  0  0  0  0  0  0  0
  -20.6876  -44.1774   -4.9971 N   0  0  0  0  0  0  0  0  0  0  0  0
  -21.7988  -43.5037   -4.3727 C   0  0  0  0  0  0  0  0  0  0  0  0
  -23.1304  -43.9779   -4.9148 C   0  0  0  0  0  0  0  0  0  0  0  0
  -24.1210  -42.8349   -5.0676 C   0  0  0  0  0  0  0  0  0  0  0  0
  -23.6225  -41.8454   -6.0836 C   0  0  0  0  0  0  0  0  0  0  0  0
  -23.1016  -40.7222   -5.4441 O   0  0  0  0  0  0  0  0  0  0  0  0
  -22.6814  -39.7910   -6.3867 C   0  0  0  0  0  0  0  0  0  0  0  0
  -21.2567  -39.4374   -6.0637 C   0  0  0  0  0  0  0  0  0  0  0  0
  -20.3653  -39.4390   -7.3057 C   0  0  1  0  0  0  0  0  0  0  0  0
  -20.8480  -38.2580   -8.1432 C   0  0  0  0  0  0  0  0  0  0  0  0
  -18.9795  -39.1136   -6.8506 C   0  0  0  0  0  0  0  0  0  0  0  0
  -17.9755  -39.1865   -7.9541 C   0  0  2  0  0  0  0  0  0  0  0  0
  -17.9979  -40.3454   -8.7968 N   0  0  0  0  0  0  0  0  0  0  0  0
  -17.9042  -41.7078   -8.5542 C   0  0  0  0  0  0  0  0  0  0  0  0
  -16.8061  -42.1970   -9.1654 O   0  0  0  0  0  0  0  0  0  0  0  0
  -16.5962  -38.8045   -7.4275 C   0  0  2  0  0  0  0  0  0  0  0  0
  -16.7930  -37.7286   -6.6028 O   0  0  0  0  0  0  0  0  0  0  0  0
  -15.7440  -38.4792   -8.6157 C   0  0  0  0  0  0  0  0  0  0  0  0
  -14.6835  -39.2102   -9.0203 N   0  0  0  0  0  0  0  0  0  0  0  0
  -13.7340  -39.0323  -10.0078 C   0  0  0  0  0  0  0  0  0  0  0  0
  -13.0616  -40.2192  -10.6931 C   0  0  0  0  0  0  0  0  0  0  0  0
  -12.2703  -39.3783   -9.7975 C   0  0  0  0  0  0  0  0  0  0  0  0
  -13.8837  -37.7842  -10.8731 C   0  0  0  0  0  0  0  0  0  0  0  0
  -14.8880  -36.8865  -10.7651 C   0  0  0  0  0  0  0  0  0  0  0  0
  -14.9554  -35.7500  -11.5848 C   0  0  0  0  0  0  0  0  0  0  0  0
  -13.9730  -35.5436  -12.5223 C   0  0  0  0  0  0  0  0  0  0  0  0
  -12.9410  -36.4449  -12.6493 C   0  0  0  0  0  0  0  0  0  0  0  0
  -12.9092  -37.5575  -11.8199 C   0  0  0  0  0  0  0  0  0  0  0  0
  -16.0824  -34.8012  -11.4244 C   0  0  0  0  0  0  0  0  0  0  0  0
  -16.3833  -34.0365  -12.6958 C   0  0  0  0  0  0  0  0  0  0  0  0
  -15.8633  -33.8754  -10.2437 C   0  0  0  0  0  0  0  0  0  0  0  0
  -17.3561  -35.5939  -11.0949 C   0  0  0  0  0  0  0  0  0  0  0  0
  -19.9560  -44.9946   -6.9810 N   0  0  0  0  0  0  0  0  0  0  0  0
  1  2  1  0
  2  3  1  0
  3  4  1  0
  4  5  2  0
  5  6  1  0
  6  7  2  0
  7  8  1  0
  8  9  1  0
  9 10  1  0
 10 11  1  0
 11 12  1  0
 12 13  1  0
 13 14  1  0
 14 15  1  0
 15 16  1  0
 16 17  1  0
 17 18  1  6
 17 19  1  0
 20 19  1  1
 20 21  1  0
 21 22  1  0
 22 23  2  0
 20 24  1  0
 24 25  1  1
 24 26  1  0
 26 27  1  0
 27 28  1  0
 28 29  1  0
 29 30  1  0
 28 31  1  0
 31 32  2  0
 32 33  1  0
 33 34  2  0
 34 35  1  0
 35 36  2  0
 33 37  1  0
 37 38  1  0
 37 39  1  0
 37 40  1  0
  8 41  2  0
 22  6  1  0
 30 28  1  0
 36 31  1  0
 41  4  1  0
M  END
$$$$
