
     RDKit          3D

 41 44  0  0  0  0  0  0  0  0999 V2000
  -19.0689  -36.1906  -14.6648 C   0  0  0  0  0  0  0  0  0  0  0  0
  -18.3853  -37.3616  -14.4661 O   0  0  0  0  0  0  0  0  0  0  0  0
  -17.0343  -37.2392  -14.6493 C   0  0  0  0  0  0  0  0  0  0  0  0
  -16.2388  -37.2610  -13.3914 C   0  0  0  0  0  0  0  0  0  0  0  0
  -16.6216  -38.0193  -12.3264 C   0  0  0  0  0  0  0  0  0  0  0  0
  -15.9053  -38.1094  -11.0912 C   0  0  0  0  0  0  0  0  0  0  0  0
  -14.7467  -37.3677  -10.9920 C   0  0  0  0  0  0  0  0  0  0  0  0
  -14.3590  -36.6085  -12.0548 C   0  0  0  0  0  0  0  0  0  0  0  0
  -13.2420  -35.7364  -12.2927 N   0  0  0  0  0  0  0  0  0  0  0  0
  -11.8262  -35.9693  -12.1520 C   0  0  0  0  0  0  0  0  0  0  0  0
  -11.2114  -36.5254  -13.4187 C   0  0  0  0  0  0  0  0  0  0  0  0
  -10.1609  -37.5836  -13.1230 C   0  0  0  0  0  0  0  0  0  0  0  0
  -10.7916  -38.7700  -12.4487 C   0  0  0  0  0  0  0  0  0  0  0  0
  -10.5161  -38.7482  -11.0828 O   0  0  0  0  0  0  0  0  0  0  0  0
  -11.0638  -39.8690  -10.4697 C   0  0  0  0  0  0  0  0  0  0  0  0
  -11.9059  -39.3861   -9.3223 C   0  0  0  0  0  0  0  0  0  0  0  0
  -13.2712  -40.0724   -9.2788 C   0  0  1  0  0  0  0  0  0  0  0  0
  -12.9744  -41.5259   -8.9203 C   0  0  0  0  0  0  0  0  0  0  0  0
  -14.0210  -39.4837   -8.1277 C   0  0  0  0  0  0  0  0  0  0  0  0
  -15.4231  -39.9891   -8.0306 C   0  0  2  0  0  0  0  0  0  0  0  0
  -16.2108  -39.9965   -9.2277 N   0  0  0  0  0  0  0  0  0  0  0  0
  -16.5739  -39.0181  -10.1412 C   0  0  0  0  0  0  0  0  0  0  0  0
  -17.9157  -38.8822  -10.1423 O   0  0  0  0  0  0  0  0  0  0  0  0
  -16.1121  -39.3789   -6.8146 C   0  0  2  0  0  0  0  0  0  0  0  0
  -16.4915  -40.4343   -6.0280 O   0  0  0  0  0  0  0  0  0  0  0  0
  -17.2752  -38.5815   -7.3197 C   0  0  0  0  0  0  0  0  0  0  0  0
  -18.4791  -39.1020   -7.6398 N   0  0  0  0  0  0  0  0  0  0  0  0
  -19.7719  -38.6254   -7.5405 C   0  0  0  0  0  0  0  0  0  0  0  0
  -20.2846  -37.5107   -8.4488 C   0  0  0  0  0  0  0  0  0  0  0  0
  -20.0850  -37.2303   -7.0286 C   0  0  0  0  0  0  0  0  0  0  0  0
  -20.8288  -39.6271   -7.0841 C   0  0  0  0  0  0  0  0  0  0  0  0
  -20.7260  -40.4121   -5.9890 C   0  0  0  0  0  0  0  0  0  0  0  0
  -21.7453  -41.3017   -5.6183 C   0  0  0  0  0  0  0  0  0  0  0  0
  -22.8797  -41.3762   -6.3893 C   0  0  0  0  0  0  0  0  0  0  0  0
  -23.0056  -40.5858   -7.5086 C   0  0  0  0  0  0  0  0  0  0  0  0
  -21.9750  -39.7180   -7.8428 C   0  0  0  0  0  0  0  0  0  0  0  0
  -21.5763  -42.1413   -4.4090 C   0  0  0  0  0  0  0  0  0  0  0  0
  -20.7490  -41.4599   -3.3398 C   0  0  0  0  0  0  0  0  0  0  0  0
  -21.0331  -43.5132   -4.7585 C   0  0  0  0  0  0  0  0  0  0  0  0
  -22.9557  -42.3925   -3.7818 C   0  0  0  0  0  0  0  0  0  0  0  0
  -15.1276  -36.5864  -13.2207 N   0  0  0  0  0  0  0  0  0  0  0  0
  1  2  1  0
  2  3  1  0
  3  4  1  0
  4  5  2  0
  5  6  1  0
  6  7  2  0
  7  8  1  0
  8  9  1  0
  9 10  1  0
 10 11  1  0
 11 12  1  0
 12 13  1  0
 13 14  1  0
 14 15  1  0
 15 16  1  0
 16 17  1  0
 17 18  1  1
 17 19  1  0
 20 19  1  6
 20 21  1  0
 21 22  1  0
 22 23  2  0
 20 24  1  0
 24 25  1  1
 24 26  1  0
 26 27  1  0
 27 28  1  0
 28 29  1  0
 29 30  1  0
 28 31  1  0
 31 32  2  0
 32 33  1  0
 33 34  2  0
 34 35  1  0
 35 36  2  0
 33 37  1  0
 37 38  1  0
 37 39  1  0
 37 40  1  0
  8 41  2  0
 22  6  1  0
 30 28  1  0
 36 31  1  0
 41  4  1  0
M  END
$$$$
