
     RDKit          3D

 41 44  0  0  0  0  0  0  0  0999 V2000
  -17.7137  -48.2790   -7.5941 C   0  0  0  0  0  0  0  0  0  0  0  0
  -17.8554  -47.1868   -8.4096 O   0  0  0  0  0  0  0  0  0  0  0  0
  -19.1505  -46.7583   -8.5226 C   0  0  0  0  0  0  0  0  0  0  0  0
  -19.4326  -45.4664   -7.8393 C   0  0  0  0  0  0  0  0  0  0  0  0
  -18.7570  -44.3304   -8.1691 C   0  0  0  0  0  0  0  0  0  0  0  0
  -18.9799  -43.0484   -7.5744 C   0  0  0  0  0  0  0  0  0  0  0  0
  -19.9529  -42.9791   -6.5992 C   0  0  0  0  0  0  0  0  0  0  0  0
  -20.6321  -44.1123   -6.2665 C   0  0  0  0  0  0  0  0  0  0  0  0
  -21.6776  -44.3982   -5.3231 N   0  0  0  0  0  0  0  0  0  0  0  0
  -22.9599  -43.7686   -5.1279 C   0  0  0  0  0  0  0  0  0  0  0  0
  -24.0397  -44.3980   -5.9820 C   0  0  0  0  0  0  0  0  0  0  0  0
  -24.9996  -43.3597   -6.5402 C   0  0  0  0  0  0  0  0  0  0  0  0
  -24.2740  -42.4234   -7.4658 C   0  0  0  0  0  0  0  0  0  0  0  0
  -24.0307  -41.2093   -6.8264 O   0  0  0  0  0  0  0  0  0  0  0  0
  -23.3985  -40.3312   -7.6990 C   0  0  0  0  0  0  0  0  0  0  0  0
  -22.1577  -39.8327   -7.0127 C   0  0  0  0  0  0  0  0  0  0  0  0
  -20.9363  -39.8668   -7.9314 C   0  0  1  0  0  0  0  0  0  0  0  0
  -21.2091  -38.8073   -8.9954 C   0  0  0  0  0  0  0  0  0  0  0  0
  -19.7704  -39.3881   -7.1281 C   0  0  0  0  0  0  0  0  0  0  0  0
  -18.4794  -39.4717   -7.8745 C   0  0  2  0  0  0  0  0  0  0  0  0
  -18.1850  -40.6968   -8.5571 N   0  0  0  0  0  0  0  0  0  0  0  0
  -18.0944  -42.0205   -8.1527 C   0  0  0  0  0  0  0  0  0  0  0  0
  -16.8386  -42.4668   -8.3591 O   0  0  0  0  0  0  0  0  0  0  0  0
  -17.3444  -38.9312   -7.0112 C   0  0  2  0  0  0  0  0  0  0  0  0
  -17.9183  -38.0251   -6.1591 O   0  0  0  0  0  0  0  0  0  0  0  0
  -16.3440  -38.3083   -7.9359 C   0  0  0  0  0  0  0  0  0  0  0  0
  -15.2798  -38.9535   -8.4593 N   0  0  0  0  0  0  0  0  0  0  0  0
  -14.2135  -38.5431   -9.2358 C   0  0  0  0  0  0  0  0  0  0  0  0
  -12.8170  -38.3645   -8.6456 C   0  0  0  0  0  0  0  0  0  0  0  0
  -13.5636  -37.1810   -9.0667 C   0  0  0  0  0  0  0  0  0  0  0  0
  -14.2482  -38.9556  -10.7046 C   0  0  0  0  0  0  0  0  0  0  0  0
  -13.4812  -38.4139  -11.6765 C   0  0  0  0  0  0  0  0  0  0  0  0
  -13.5535  -38.8531  -13.0068 C   0  0  0  0  0  0  0  0  0  0  0  0
  -14.4273  -39.8623  -13.3303 C   0  0  0  0  0  0  0  0  0  0  0  0
  -15.2177  -40.4284  -12.3565 C   0  0  0  0  0  0  0  0  0  0  0  0
  -15.1175  -39.9665  -11.0513 C   0  0  0  0  0  0  0  0  0  0  0  0
  -12.6909  -38.2195  -14.0317 C   0  0  0  0  0  0  0  0  0  0  0  0
  -12.8706  -38.8347  -15.4032 C   0  0  0  0  0  0  0  0  0  0  0  0
  -11.2369  -38.2072  -13.6014 C   0  0  0  0  0  0  0  0  0  0  0  0
  -13.0904  -36.7432  -14.1735 C   0  0  0  0  0  0  0  0  0  0  0  0
  -20.3415  -45.3195   -6.9058 N   0  0  0  0  0  0  0  0  0  0  0  0
  1  2  1  0
  2  3  1  0
  3  4  1  0
  4  5  2  0
  5  6  1  0
  6  7  2  0
  7  8  1  0
  8  9  1  0
  9 10  1  0
 10 11  1  0
 11 12  1  0
 12 13  1  0
 13 14  1  0
 14 15  1  0
 15 16  1  0
 16 17  1  0
 17 18  1  6
 17 19  1  0
 20 19  1  1
 20 21  1  0
 21 22  1  0
 22 23  2  0
 20 24  1  0
 24 25  1  1
 24 26  1  0
 26 27  1  0
 27 28  1  0
 28 29  1  0
 29 30  1  0
 28 31  1  0
 31 32  2  0
 32 33  1  0
 33 34  2  0
 34 35  1  0
 35 36  2  0
 33 37  1  0
 37 38  1  0
 37 39  1  0
 37 40  1  0
  8 41  2  0
 22  6  1  0
 30 28  1  0
 36 31  1  0
 41  4  1  0
M  END
$$$$
