
     RDKit          3D

 41 44  0  0  0  0  0  0  0  0999 V2000
  -20.4766  -47.2345  -11.1699 C   0  0  0  0  0  0  0  0  0  0  0  0
  -19.6890  -46.5086  -10.3150 O   0  0  0  0  0  0  0  0  0  0  0  0
  -20.0665  -46.6185   -9.0039 C   0  0  0  0  0  0  0  0  0  0  0  0
  -19.9035  -45.3698   -8.2104 C   0  0  0  0  0  0  0  0  0  0  0  0
  -19.1992  -44.3102   -8.6973 C   0  0  0  0  0  0  0  0  0  0  0  0
  -19.0112  -43.0710   -8.0074 C   0  0  0  0  0  0  0  0  0  0  0  0
  -19.5928  -42.9616   -6.7615 C   0  0  0  0  0  0  0  0  0  0  0  0
  -20.2991  -44.0182   -6.2706 C   0  0  0  0  0  0  0  0  0  0  0  0
  -21.0150  -44.2463   -5.0458 N   0  0  0  0  0  0  0  0  0  0  0  0
  -22.0481  -43.4696   -4.4070 C   0  0  0  0  0  0  0  0  0  0  0  0
  -23.4315  -43.8640   -4.8784 C   0  0  0  0  0  0  0  0  0  0  0  0
  -24.3423  -42.6575   -5.0390 C   0  0  0  0  0  0  0  0  0  0  0  0
  -23.8157  -41.7461   -6.1122 C   0  0  0  0  0  0  0  0  0  0  0  0
  -23.1891  -40.6413   -5.5387 O   0  0  0  0  0  0  0  0  0  0  0  0
  -22.7417  -39.7795   -6.5334 C   0  0  0  0  0  0  0  0  0  0  0  0
  -21.2832  -39.5203   -6.2795 C   0  0  0  0  0  0  0  0  0  0  0  0
  -20.4460  -39.6340   -7.5535 C   0  0  1  0  0  0  0  0  0  0  0  0
  -20.8759  -38.4526   -8.4187 C   0  0  0  0  0  0  0  0  0  0  0  0
  -19.0227  -39.3951   -7.1652 C   0  0  0  0  0  0  0  0  0  0  0  0
  -18.0727  -39.5830   -8.3023 C   0  0  2  0  0  0  0  0  0  0  0  0
  -18.2134  -40.7677   -9.0963 N   0  0  0  0  0  0  0  0  0  0  0  0
  -18.2086  -42.1233   -8.8030 C   0  0  0  0  0  0  0  0  0  0  0  0
  -17.1747  -42.7147   -9.4355 O   0  0  0  0  0  0  0  0  0  0  0  0
  -16.6490  -39.2845   -7.8446 C   0  0  2  0  0  0  0  0  0  0  0  0
  -16.7423  -38.2078   -7.0029 O   0  0  0  0  0  0  0  0  0  0  0  0
  -15.8414  -38.9954   -9.0726 C   0  0  0  0  0  0  0  0  0  0  0  0
  -14.6297  -39.5297   -9.3354 N   0  0  0  0  0  0  0  0  0  0  0  0
  -14.0091  -39.9384  -10.5000 C   0  0  0  0  0  0  0  0  0  0  0  0
  -14.4050  -41.2335  -11.2045 C   0  0  0  0  0  0  0  0  0  0  0  0
  -13.1003  -41.1540  -10.5513 C   0  0  0  0  0  0  0  0  0  0  0  0
  -13.4972  -38.8318  -11.4178 C   0  0  0  0  0  0  0  0  0  0  0  0
  -13.5676  -37.5100  -11.1462 C   0  0  0  0  0  0  0  0  0  0  0  0
  -13.0617  -36.5453  -12.0302 C   0  0  0  0  0  0  0  0  0  0  0  0
  -12.4777  -36.9559  -13.2036 C   0  0  0  0  0  0  0  0  0  0  0  0
  -12.3952  -38.2970  -13.5003 C   0  0  0  0  0  0  0  0  0  0  0  0
  -12.9075  -39.2213  -12.6003 C   0  0  0  0  0  0  0  0  0  0  0  0
  -13.1700  -35.1090  -11.6818 C   0  0  0  0  0  0  0  0  0  0  0  0
  -12.4760  -34.7733  -10.3790 C   0  0  0  0  0  0  0  0  0  0  0  0
  -14.6132  -34.6438  -11.6923 C   0  0  0  0  0  0  0  0  0  0  0  0
  -12.4628  -34.2805  -12.7647 C   0  0  0  0  0  0  0  0  0  0  0  0
  -20.4265  -45.1887   -7.0218 N   0  0  0  0  0  0  0  0  0  0  0  0
  1  2  1  0
  2  3  1  0
  3  4  1  0
  4  5  2  0
  5  6  1  0
  6  7  2  0
  7  8  1  0
  8  9  1  0
  9 10  1  0
 10 11  1  0
 11 12  1  0
 12 13  1  0
 13 14  1  0
 14 15  1  0
 15 16  1  0
 16 17  1  0
 17 18  1  6
 17 19  1  0
 20 19  1  1
 20 21  1  0
 21 22  1  0
 22 23  2  0
 20 24  1  0
 24 25  1  1
 24 26  1  0
 26 27  1  0
 27 28  1  0
 28 29  1  0
 29 30  1  0
 28 31  1  0
 31 32  2  0
 32 33  1  0
 33 34  2  0
 34 35  1  0
 35 36  2  0
 33 37  1  0
 37 38  1  0
 37 39  1  0
 37 40  1  0
  8 41  2  0
 22  6  1  0
 30 28  1  0
 36 31  1  0
 41  4  1  0
M  END
$$$$
