
     RDKit          3D

 41 44  0  0  0  0  0  0  0  0999 V2000
  -19.8878  -47.6860  -10.7059 C   0  0  0  0  0  0  0  0  0  0  0  0
  -19.7137  -46.5374   -9.9790 O   0  0  0  0  0  0  0  0  0  0  0  0
  -20.1008  -46.6586   -8.6716 C   0  0  0  0  0  0  0  0  0  0  0  0
  -19.9671  -45.4101   -7.8724 C   0  0  0  0  0  0  0  0  0  0  0  0
  -19.1189  -44.4146   -8.2538 C   0  0  0  0  0  0  0  0  0  0  0  0
  -18.9454  -43.1794   -7.5531 C   0  0  0  0  0  0  0  0  0  0  0  0
  -19.7003  -43.0035   -6.4122 C   0  0  0  0  0  0  0  0  0  0  0  0
  -20.5509  -43.9957   -6.0272 C   0  0  0  0  0  0  0  0  0  0  0  0
  -21.4604  -44.1469   -4.9251 N   0  0  0  0  0  0  0  0  0  0  0  0
  -22.5173  -43.2843   -4.4588 C   0  0  0  0  0  0  0  0  0  0  0  0
  -23.8384  -43.5853   -5.1339 C   0  0  0  0  0  0  0  0  0  0  0  0
  -24.6204  -42.3186   -5.4420 C   0  0  0  0  0  0  0  0  0  0  0  0
  -23.8690  -41.4693   -6.4289 C   0  0  0  0  0  0  0  0  0  0  0  0
  -23.2557  -40.4025   -5.7748 O   0  0  0  0  0  0  0  0  0  0  0  0
  -22.5981  -39.5953   -6.6957 C   0  0  0  0  0  0  0  0  0  0  0  0
  -21.1800  -39.4388   -6.2229 C   0  0  0  0  0  0  0  0  0  0  0  0
  -20.1692  -39.6383   -7.3522 C   0  0  1  0  0  0  0  0  0  0  0  0
  -20.3718  -38.4456   -8.2826 C   0  0  0  0  0  0  0  0  0  0  0  0
  -18.8079  -39.4969   -6.7518 C   0  0  0  0  0  0  0  0  0  0  0  0
  -17.7125  -39.7760   -7.7280 C   0  0  2  0  0  0  0  0  0  0  0  0
  -17.8194  -40.9623   -8.5248 N   0  0  0  0  0  0  0  0  0  0  0  0
  -17.9616  -42.3087   -8.2235 C   0  0  0  0  0  0  0  0  0  0  0  0
  -16.8909  -42.9864   -8.6849 O   0  0  0  0  0  0  0  0  0  0  0  0
  -16.3568  -39.5739   -7.0595 C   0  0  2  0  0  0  0  0  0  0  0  0
  -16.5765  -38.7144   -6.0156 O   0  0  0  0  0  0  0  0  0  0  0  0
  -15.4334  -39.0087   -8.0947 C   0  0  0  0  0  0  0  0  0  0  0  0
  -14.8662  -39.7259   -9.0880 N   0  0  0  0  0  0  0  0  0  0  0  0
  -13.8504  -39.4593   -9.9854 C   0  0  0  0  0  0  0  0  0  0  0  0
  -13.0840  -40.5813  -10.6813 C   0  0  0  0  0  0  0  0  0  0  0  0
  -12.3956  -39.7701   -9.6795 C   0  0  0  0  0  0  0  0  0  0  0  0
  -13.9782  -38.1675  -10.7876 C   0  0  0  0  0  0  0  0  0  0  0  0
  -13.4502  -37.9661  -12.0151 C   0  0  0  0  0  0  0  0  0  0  0  0
  -13.6202  -36.7559  -12.7040 C   0  0  0  0  0  0  0  0  0  0  0  0
  -14.3443  -35.7483  -12.1149 C   0  0  0  0  0  0  0  0  0  0  0  0
  -14.8911  -35.9318  -10.8656 C   0  0  0  0  0  0  0  0  0  0  0  0
  -14.7008  -37.1435  -10.2156 C   0  0  0  0  0  0  0  0  0  0  0  0
  -13.0149  -36.5899  -14.0464 C   0  0  0  0  0  0  0  0  0  0  0  0
  -13.6702  -37.4672  -15.0916 C   0  0  0  0  0  0  0  0  0  0  0  0
  -11.5116  -36.7839  -14.0041 C   0  0  0  0  0  0  0  0  0  0  0  0
  -13.2299  -35.1422  -14.5126 C   0  0  0  0  0  0  0  0  0  0  0  0
  -20.6501  -45.1681   -6.7797 N   0  0  0  0  0  0  0  0  0  0  0  0
  1  2  1  0
  2  3  1  0
  3  4  1  0
  4  5  2  0
  5  6  1  0
  6  7  2  0
  7  8  1  0
  8  9  1  0
  9 10  1  0
 10 11  1  0
 11 12  1  0
 12 13  1  0
 13 14  1  0
 14 15  1  0
 15 16  1  0
 16 17  1  0
 17 18  1  6
 17 19  1  0
 20 19  1  1
 20 21  1  0
 21 22  1  0
 22 23  2  0
 20 24  1  0
 24 25  1  1
 24 26  1  0
 26 27  1  0
 27 28  1  0
 28 29  1  0
 29 30  1  0
 28 31  1  0
 31 32  2  0
 32 33  1  0
 33 34  2  0
 34 35  1  0
 35 36  2  0
 33 37  1  0
 37 38  1  0
 37 39  1  0
 37 40  1  0
  8 41  2  0
 22  6  1  0
 30 28  1  0
 36 31  1  0
 41  4  1  0
M  END
$$$$
