
     RDKit          3D

 41 44  0  0  0  0  0  0  0  0999 V2000
  -16.4105  -46.7925   -9.1545 C   0  0  0  0  0  0  0  0  0  0  0  0
  -17.7267  -47.1469   -9.0128 O   0  0  0  0  0  0  0  0  0  0  0  0
  -18.2777  -46.7271   -7.8321 C   0  0  0  0  0  0  0  0  0  0  0  0
  -19.3020  -45.6570   -7.9778 C   0  0  0  0  0  0  0  0  0  0  0  0
  -18.9914  -44.4525   -8.5332 C   0  0  0  0  0  0  0  0  0  0  0  0
  -19.9192  -43.3805   -8.7252 C   0  0  0  0  0  0  0  0  0  0  0  0
  -21.2161  -43.6028   -8.3115 C   0  0  0  0  0  0  0  0  0  0  0  0
  -21.5321  -44.8062   -7.7564 C   0  0  0  0  0  0  0  0  0  0  0  0
  -22.7468  -45.3643   -7.2294 N   0  0  0  0  0  0  0  0  0  0  0  0
  -24.0578  -45.4767   -7.8186 C   0  0  0  0  0  0  0  0  0  0  0  0
  -24.2221  -46.7612   -8.6026 C   0  0  0  0  0  0  0  0  0  0  0  0
  -25.0211  -46.5497   -9.8784 C   0  0  0  0  0  0  0  0  0  0  0  0
  -24.2855  -45.6239  -10.8067 C   0  0  0  0  0  0  0  0  0  0  0  0
  -24.8534  -44.3520  -10.7654 O   0  0  0  0  0  0  0  0  0  0  0  0
  -24.1984  -43.5101  -11.6567 C   0  0  0  0  0  0  0  0  0  0  0  0
  -23.7754  -42.2880  -10.8910 C   0  0  0  0  0  0  0  0  0  0  0  0
  -22.3285  -41.8931  -11.1869 C   0  0  1  0  0  0  0  0  0  0  0  0
  -22.3333  -41.4239  -12.6391 C   0  0  0  0  0  0  0  0  0  0  0  0
  -22.0192  -40.6986  -10.3436 C   0  0  0  0  0  0  0  0  0  0  0  0
  -20.5936  -40.2666  -10.4521 C   0  0  2  0  0  0  0  0  0  0  0  0
  -19.5829  -41.2755  -10.3324 N   0  0  0  0  0  0  0  0  0  0  0  0
  -19.2766  -42.2132   -9.3574 C   0  0  0  0  0  0  0  0  0  0  0  0
  -18.0427  -41.9676   -8.8718 O   0  0  0  0  0  0  0  0  0  0  0  0
  -20.3612  -39.0235   -9.5997 C   0  0  2  0  0  0  0  0  0  0  0  0
  -20.8980  -37.9785  -10.3042 O   0  0  0  0  0  0  0  0  0  0  0  0
  -18.8821  -38.8935   -9.4018 C   0  0  0  0  0  0  0  0  0  0  0  0
  -18.3013  -38.3033   -8.3354 N   0  0  0  0  0  0  0  0  0  0  0  0
  -17.3238  -38.7076   -7.4471 C   0  0  0  0  0  0  0  0  0  0  0  0
  -15.8537  -38.3566   -7.6623 C   0  0  0  0  0  0  0  0  0  0  0  0
  -16.2778  -39.7472   -7.8098 C   0  0  0  0  0  0  0  0  0  0  0  0
  -17.7503  -38.8446   -5.9883 C   0  0  0  0  0  0  0  0  0  0  0  0
  -19.0279  -38.7992   -5.5505 C   0  0  0  0  0  0  0  0  0  0  0  0
  -19.3505  -38.9485   -4.1935 C   0  0  0  0  0  0  0  0  0  0  0  0
  -18.3399  -39.1474   -3.2848 C   0  0  0  0  0  0  0  0  0  0  0  0
  -17.0317  -39.1972   -3.7086 C   0  0  0  0  0  0  0  0  0  0  0  0
  -16.7525  -39.0451   -5.0599 C   0  0  0  0  0  0  0  0  0  0  0  0
  -20.7693  -38.8859   -3.7702 C   0  0  0  0  0  0  0  0  0  0  0  0
  -21.7279  -39.1658   -4.9079 C   0  0  0  0  0  0  0  0  0  0  0  0
  -21.0824  -37.5758   -3.0737 C   0  0  0  0  0  0  0  0  0  0  0  0
  -21.0238  -39.9798   -2.7224 C   0  0  0  0  0  0  0  0  0  0  0  0
  -20.5536  -45.7921   -7.6113 N   0  0  0  0  0  0  0  0  0  0  0  0
  1  2  1  0
  2  3  1  0
  3  4  1  0
  4  5  2  0
  5  6  1  0
  6  7  2  0
  7  8  1  0
  8  9  1  0
  9 10  1  0
 10 11  1  0
 11 12  1  0
 12 13  1  0
 13 14  1  0
 14 15  1  0
 15 16  1  0
 16 17  1  0
 17 18  1  6
 17 19  1  0
 20 19  1  1
 20 21  1  0
 21 22  1  0
 22 23  2  0
 20 24  1  0
 24 25  1  6
 24 26  1  0
 26 27  1  0
 27 28  1  0
 28 29  1  0
 29 30  1  0
 28 31  1  0
 31 32  2  0
 32 33  1  0
 33 34  2  0
 34 35  1  0
 35 36  2  0
 33 37  1  0
 37 38  1  0
 37 39  1  0
 37 40  1  0
  8 41  2  0
 22  6  1  0
 30 28  1  0
 36 31  1  0
 41  4  1  0
M  END
$$$$
