
     RDKit          3D

 41 44  0  0  0  0  0  0  0  0999 V2000
  -21.5398  -47.2163  -10.3918 C   0  0  0  0  0  0  0  0  0  0  0  0
  -20.7067  -46.1355  -10.2659 O   0  0  0  0  0  0  0  0  0  0  0  0
  -19.7066  -46.3248   -9.3507 C   0  0  0  0  0  0  0  0  0  0  0  0
  -19.4320  -45.1442   -8.4868 C   0  0  0  0  0  0  0  0  0  0  0  0
  -18.8006  -44.0413   -8.9774 C   0  0  0  0  0  0  0  0  0  0  0  0
  -18.5158  -42.8614   -8.2201 C   0  0  0  0  0  0  0  0  0  0  0  0
  -18.9176  -42.8607   -6.9006 C   0  0  0  0  0  0  0  0  0  0  0  0
  -19.5505  -43.9609   -6.4055 C   0  0  0  0  0  0  0  0  0  0  0  0
  -20.0890  -44.2961   -5.1161 N   0  0  0  0  0  0  0  0  0  0  0  0
  -21.0213  -43.5846   -4.2776 C   0  0  0  0  0  0  0  0  0  0  0  0
  -22.4578  -43.9523   -4.5828 C   0  0  0  0  0  0  0  0  0  0  0  0
  -23.3797  -42.7455   -4.5144 C   0  0  0  0  0  0  0  0  0  0  0  0
  -23.0062  -41.7437   -5.5712 C   0  0  0  0  0  0  0  0  0  0  0  0
  -22.3036  -40.6839   -5.0009 O   0  0  0  0  0  0  0  0  0  0  0  0
  -21.9977  -39.7388   -5.9732 C   0  0  0  0  0  0  0  0  0  0  0  0
  -20.5176  -39.4873   -5.9042 C   0  0  0  0  0  0  0  0  0  0  0  0
  -19.8665  -39.4876   -7.2874 C   0  0  1  0  0  0  0  0  0  0  0  0
  -20.4107  -38.2431   -7.9833 C   0  0  0  0  0  0  0  0  0  0  0  0
  -18.4025  -39.2677   -7.0825 C   0  0  0  0  0  0  0  0  0  0  0  0
  -17.6209  -39.3521   -8.3525 C   0  0  2  0  0  0  0  0  0  0  0  0
  -17.8733  -40.4686   -9.2147 N   0  0  0  0  0  0  0  0  0  0  0  0
  -17.8302  -41.8437   -9.0383 C   0  0  0  0  0  0  0  0  0  0  0  0
  -16.8958  -42.3709   -9.8554 O   0  0  0  0  0  0  0  0  0  0  0  0
  -16.1466  -39.0786   -8.0742 C   0  0  2  0  0  0  0  0  0  0  0  0
  -16.1017  -37.8623   -7.4456 O   0  0  0  0  0  0  0  0  0  0  0  0
  -15.4403  -39.0778   -9.3952 C   0  0  0  0  0  0  0  0  0  0  0  0
  -14.5711  -40.0286   -9.7991 N   0  0  0  0  0  0  0  0  0  0  0  0
  -13.3584  -39.9821  -10.4590 C   0  0  0  0  0  0  0  0  0  0  0  0
  -12.7920  -41.2044  -11.1773 C   0  0  0  0  0  0  0  0  0  0  0  0
  -12.1347  -40.7311   -9.9610 C   0  0  0  0  0  0  0  0  0  0  0  0
  -12.9690  -38.6366  -11.0645 C   0  0  0  0  0  0  0  0  0  0  0  0
  -13.8032  -37.5826  -11.2033 C   0  0  0  0  0  0  0  0  0  0  0  0
  -13.3734  -36.3669  -11.7556 C   0  0  0  0  0  0  0  0  0  0  0  0
  -12.0683  -36.2441  -12.1658 C   0  0  0  0  0  0  0  0  0  0  0  0
  -11.2015  -37.3046  -12.0337 C   0  0  0  0  0  0  0  0  0  0  0  0
  -11.6644  -38.4915  -11.4824 C   0  0  0  0  0  0  0  0  0  0  0  0
  -14.3336  -35.2458  -11.8870 C   0  0  0  0  0  0  0  0  0  0  0  0
  -15.7671  -35.7190  -12.0005 C   0  0  0  0  0  0  0  0  0  0  0  0
  -13.9504  -34.3185  -13.0240 C   0  0  0  0  0  0  0  0  0  0  0  0
  -14.2703  -34.3859  -10.6159 C   0  0  0  0  0  0  0  0  0  0  0  0
  -19.7837  -45.0667   -7.2261 N   0  0  0  0  0  0  0  0  0  0  0  0
  1  2  1  0
  2  3  1  0
  3  4  1  0
  4  5  2  0
  5  6  1  0
  6  7  2  0
  7  8  1  0
  8  9  1  0
  9 10  1  0
 10 11  1  0
 11 12  1  0
 12 13  1  0
 13 14  1  0
 14 15  1  0
 15 16  1  0
 16 17  1  0
 17 18  1  6
 17 19  1  0
 20 19  1  1
 20 21  1  0
 21 22  1  0
 22 23  2  0
 20 24  1  0
 24 25  1  6
 24 26  1  0
 26 27  1  0
 27 28  1  0
 28 29  1  0
 29 30  1  0
 28 31  1  0
 31 32  2  0
 32 33  1  0
 33 34  2  0
 34 35  1  0
 35 36  2  0
 33 37  1  0
 37 38  1  0
 37 39  1  0
 37 40  1  0
  8 41  2  0
 22  6  1  0
 30 28  1  0
 36 31  1  0
 41  4  1  0
M  END
$$$$
