
     RDKit          3D

 41 44  0  0  0  0  0  0  0  0999 V2000
  -12.3409  -45.3742   -4.8624 C   0  0  0  0  0  0  0  0  0  0  0  0
  -12.6754  -44.2723   -5.6053 O   0  0  0  0  0  0  0  0  0  0  0  0
  -13.1693  -44.5823   -6.8437 C   0  0  0  0  0  0  0  0  0  0  0  0
  -14.6552  -44.6227   -6.9207 C   0  0  0  0  0  0  0  0  0  0  0  0
  -15.3609  -43.6074   -7.4925 C   0  0  0  0  0  0  0  0  0  0  0  0
  -16.7854  -43.5776   -7.6219 C   0  0  0  0  0  0  0  0  0  0  0  0
  -17.4750  -44.6643   -7.1259 C   0  0  0  0  0  0  0  0  0  0  0  0
  -16.7737  -45.6828   -6.5540 C   0  0  0  0  0  0  0  0  0  0  0  0
  -17.1548  -46.9300   -5.9508 N   0  0  0  0  0  0  0  0  0  0  0  0
  -17.9801  -47.9996   -6.4543 C   0  0  0  0  0  0  0  0  0  0  0  0
  -17.1772  -49.0229   -7.2288 C   0  0  0  0  0  0  0  0  0  0  0  0
  -17.9284  -49.5283   -8.4499 C   0  0  0  0  0  0  0  0  0  0  0  0
  -18.1592  -48.4050   -9.4218 C   0  0  0  0  0  0  0  0  0  0  0  0
  -19.4787  -47.9642   -9.3412 O   0  0  0  0  0  0  0  0  0  0  0  0
  -19.7002  -46.9552  -10.2713 C   0  0  0  0  0  0  0  0  0  0  0  0
  -20.2838  -45.7840   -9.5319 C   0  0  0  0  0  0  0  0  0  0  0  0
  -19.6156  -44.4649   -9.9198 C   0  0  1  0  0  0  0  0  0  0  0  0
  -20.0309  -44.2194  -11.3677 C   0  0  0  0  0  0  0  0  0  0  0  0
  -20.2518  -43.3926   -9.0957 C   0  0  0  0  0  0  0  0  0  0  0  0
  -19.6168  -42.0555   -9.2952 C   0  0  2  0  0  0  0  0  0  0  0  0
  -18.1865  -41.9851   -9.2432 N   0  0  0  0  0  0  0  0  0  0  0  0
  -17.2439  -42.3463   -8.2920 C   0  0  0  0  0  0  0  0  0  0  0  0
  -16.5734  -41.2486   -7.8865 O   0  0  0  0  0  0  0  0  0  0  0  0
  -20.3403  -41.0067   -8.4570 C   0  0  2  0  0  0  0  0  0  0  0  0
  -21.6335  -40.9907   -8.9086 O   0  0  0  0  0  0  0  0  0  0  0  0
  -19.6324  -39.7042   -8.6718 C   0  0  0  0  0  0  0  0  0  0  0  0
  -19.7106  -38.6440   -7.8395 N   0  0  0  0  0  0  0  0  0  0  0  0
  -19.2302  -37.3507   -7.9081 C   0  0  0  0  0  0  0  0  0  0  0  0
  -18.0865  -36.8746   -7.0160 C   0  0  0  0  0  0  0  0  0  0  0  0
  -19.4305  -36.3502   -6.7833 C   0  0  0  0  0  0  0  0  0  0  0  0
  -19.3162  -36.6686   -9.2705 C   0  0  0  0  0  0  0  0  0  0  0  0
  -18.2571  -36.3913  -10.0627 C   0  0  0  0  0  0  0  0  0  0  0  0
  -18.4104  -35.7751  -11.3136 C   0  0  0  0  0  0  0  0  0  0  0  0
  -19.6719  -35.4453  -11.7454 C   0  0  0  0  0  0  0  0  0  0  0  0
  -20.7646  -35.7186  -10.9549 C   0  0  0  0  0  0  0  0  0  0  0  0
  -20.5722  -36.3293   -9.7232 C   0  0  0  0  0  0  0  0  0  0  0  0
  -17.2123  -35.4914  -12.1383 C   0  0  0  0  0  0  0  0  0  0  0  0
  -16.7449  -34.0573  -12.0099 C   0  0  0  0  0  0  0  0  0  0  0  0
  -17.4287  -35.8903  -13.5852 C   0  0  0  0  0  0  0  0  0  0  0  0
  -16.0492  -36.3626  -11.6410 C   0  0  0  0  0  0  0  0  0  0  0  0
  -15.3808  -45.6195   -6.4744 N   0  0  0  0  0  0  0  0  0  0  0  0
  1  2  1  0
  2  3  1  0
  3  4  1  0
  4  5  2  0
  5  6  1  0
  6  7  2  0
  7  8  1  0
  8  9  1  0
  9 10  1  0
 10 11  1  0
 11 12  1  0
 12 13  1  0
 13 14  1  0
 14 15  1  0
 15 16  1  0
 16 17  1  0
 17 18  1  6
 17 19  1  0
 20 19  1  1
 20 21  1  0
 21 22  1  0
 22 23  2  0
 20 24  1  0
 24 25  1  6
 24 26  1  0
 26 27  1  0
 27 28  1  0
 28 29  1  0
 29 30  1  0
 28 31  1  0
 31 32  2  0
 32 33  1  0
 33 34  2  0
 34 35  1  0
 35 36  2  0
 33 37  1  0
 37 38  1  0
 37 39  1  0
 37 40  1  0
  8 41  2  0
 22  6  1  0
 30 28  1  0
 36 31  1  0
 41  4  1  0
M  END
$$$$
