
     RDKit          3D

 41 44  0  0  0  0  0  0  0  0999 V2000
  -19.3207  -48.0111   -7.4440 C   0  0  0  0  0  0  0  0  0  0  0  0
  -18.4381  -46.9633   -7.4084 O   0  0  0  0  0  0  0  0  0  0  0  0
  -17.3989  -47.0988   -8.2890 C   0  0  0  0  0  0  0  0  0  0  0  0
  -16.9968  -45.8350   -8.9646 C   0  0  0  0  0  0  0  0  0  0  0  0
  -17.0200  -44.6430   -8.3054 C   0  0  0  0  0  0  0  0  0  0  0  0
  -16.6332  -43.3892   -8.8757 C   0  0  0  0  0  0  0  0  0  0  0  0
  -16.2096  -43.4104  -10.1881 C   0  0  0  0  0  0  0  0  0  0  0  0
  -16.1836  -44.6002  -10.8515 C   0  0  0  0  0  0  0  0  0  0  0  0
  -15.8113  -44.9809  -12.1861 N   0  0  0  0  0  0  0  0  0  0  0  0
  -14.6018  -44.7276  -12.9286 C   0  0  0  0  0  0  0  0  0  0  0  0
  -13.5613  -45.8048  -12.7081 C   0  0  0  0  0  0  0  0  0  0  0  0
  -12.1577  -45.2285  -12.6160 C   0  0  0  0  0  0  0  0  0  0  0  0
  -12.0409  -44.3297  -11.4166 C   0  0  0  0  0  0  0  0  0  0  0  0
  -12.0861  -42.9941  -11.8116 O   0  0  0  0  0  0  0  0  0  0  0  0
  -11.9343  -42.1662  -10.7054 C   0  0  0  0  0  0  0  0  0  0  0  0
  -13.0842  -41.1983  -10.7085 C   0  0  0  0  0  0  0  0  0  0  0  0
  -13.7267  -41.0601   -9.3282 C   0  0  1  0  0  0  0  0  0  0  0  0
  -12.6747  -40.3661   -8.4675 C   0  0  0  0  0  0  0  0  0  0  0  0
  -14.8705  -40.1088   -9.4707 C   0  0  0  0  0  0  0  0  0  0  0  0
  -15.6614  -39.9615   -8.2123 C   0  0  2  0  0  0  0  0  0  0  0  0
  -16.0506  -41.1592   -7.5284 N   0  0  0  0  0  0  0  0  0  0  0  0
  -16.7645  -42.2875   -7.9040 C   0  0  0  0  0  0  0  0  0  0  0  0
  -17.8826  -42.3797   -7.1556 O   0  0  0  0  0  0  0  0  0  0  0  0
  -16.7832  -38.9493   -8.4192 C   0  0  2  0  0  0  0  0  0  0  0  0
  -16.2640  -37.7336   -8.0599 O   0  0  0  0  0  0  0  0  0  0  0  0
  -17.9272  -39.3737   -7.5504 C   0  0  0  0  0  0  0  0  0  0  0  0
  -18.8557  -38.5349   -7.0434 N   0  0  0  0  0  0  0  0  0  0  0  0
  -19.9039  -38.7072   -6.1603 C   0  0  0  0  0  0  0  0  0  0  0  0
  -20.2588  -37.6440   -5.1239 C   0  0  0  0  0  0  0  0  0  0  0  0
  -19.6851  -38.9094   -4.6712 C   0  0  0  0  0  0  0  0  0  0  0  0
  -21.0792  -39.5424   -6.6603 C   0  0  0  0  0  0  0  0  0  0  0  0
  -22.0544  -40.0501   -5.8747 C   0  0  0  0  0  0  0  0  0  0  0  0
  -23.1167  -40.7977   -6.4043 C   0  0  0  0  0  0  0  0  0  0  0  0
  -23.1675  -41.0189   -7.7590 C   0  0  0  0  0  0  0  0  0  0  0  0
  -22.1851  -40.5110   -8.5777 C   0  0  0  0  0  0  0  0  0  0  0  0
  -21.1499  -39.7763   -8.0160 C   0  0  0  0  0  0  0  0  0  0  0  0
  -24.1563  -41.3334   -5.4942 C   0  0  0  0  0  0  0  0  0  0  0  0
  -25.2910  -42.0037   -6.2390 C   0  0  0  0  0  0  0  0  0  0  0  0
  -24.6564  -40.2691   -4.5368 C   0  0  0  0  0  0  0  0  0  0  0  0
  -23.5292  -42.4209   -4.6091 C   0  0  0  0  0  0  0  0  0  0  0  0
  -16.5816  -45.7734  -10.2068 N   0  0  0  0  0  0  0  0  0  0  0  0
  1  2  1  0
  2  3  1  0
  3  4  1  0
  4  5  2  0
  5  6  1  0
  6  7  2  0
  7  8  1  0
  8  9  1  0
  9 10  1  0
 10 11  1  0
 11 12  1  0
 12 13  1  0
 13 14  1  0
 14 15  1  0
 15 16  1  0
 16 17  1  0
 17 18  1  1
 17 19  1  0
 20 19  1  6
 20 21  1  0
 21 22  1  0
 22 23  2  0
 20 24  1  0
 24 25  1  1
 24 26  1  0
 26 27  1  0
 27 28  1  0
 28 29  1  0
 29 30  1  0
 28 31  1  0
 31 32  2  0
 32 33  1  0
 33 34  2  0
 34 35  1  0
 35 36  2  0
 33 37  1  0
 37 38  1  0
 37 39  1  0
 37 40  1  0
  8 41  2  0
 22  6  1  0
 30 28  1  0
 36 31  1  0
 41  4  1  0
M  END
$$$$
