
     RDKit          3D

 41 44  0  0  0  0  0  0  0  0999 V2000
  -20.2841  -47.1533   -9.8779 C   0  0  0  0  0  0  0  0  0  0  0  0
  -19.9176  -45.8730  -10.2011 O   0  0  0  0  0  0  0  0  0  0  0  0
  -19.0183  -45.8095  -11.2311 C   0  0  0  0  0  0  0  0  0  0  0  0
  -18.0766  -44.6593  -11.1551 C   0  0  0  0  0  0  0  0  0  0  0  0
  -18.0478  -43.8405  -10.0668 C   0  0  0  0  0  0  0  0  0  0  0  0
  -17.1632  -42.7273   -9.9082 C   0  0  0  0  0  0  0  0  0  0  0  0
  -16.2843  -42.4827  -10.9427 C   0  0  0  0  0  0  0  0  0  0  0  0
  -16.3085  -43.2994  -12.0329 C   0  0  0  0  0  0  0  0  0  0  0  0
  -15.5585  -43.3367  -13.2581 N   0  0  0  0  0  0  0  0  0  0  0  0
  -14.1346  -43.3501  -13.4837 C   0  0  0  0  0  0  0  0  0  0  0  0
  -13.5747  -44.7563  -13.5089 C   0  0  0  0  0  0  0  0  0  0  0  0
  -12.2201  -44.8407  -12.8242 C   0  0  0  0  0  0  0  0  0  0  0  0
  -12.3520  -44.5053  -11.3647 C   0  0  0  0  0  0  0  0  0  0  0  0
  -11.8969  -43.2098  -11.1270 O   0  0  0  0  0  0  0  0  0  0  0  0
  -11.9798  -42.9187   -9.7703 C   0  0  0  0  0  0  0  0  0  0  0  0
  -12.7489  -41.6347   -9.6334 C   0  0  0  0  0  0  0  0  0  0  0  0
  -13.8180  -41.7151   -8.5436 C   0  0  1  0  0  0  0  0  0  0  0  0
  -13.0428  -41.8116   -7.2325 C   0  0  0  0  0  0  0  0  0  0  0  0
  -14.5320  -40.4022   -8.5326 C   0  0  0  0  0  0  0  0  0  0  0  0
  -15.6827  -40.3768   -7.5808 C   0  0  2  0  0  0  0  0  0  0  0  0
  -16.5992  -41.4779   -7.6173 N   0  0  0  0  0  0  0  0  0  0  0  0
  -17.3744  -42.0458   -8.6174 C   0  0  0  0  0  0  0  0  0  0  0  0
  -18.6784  -41.9315   -8.2927 O   0  0  0  0  0  0  0  0  0  0  0  0
  -16.3366  -38.9990   -7.5929 C   0  0  2  0  0  0  0  0  0  0  0  0
  -15.4134  -38.1398   -7.0582 O   0  0  0  0  0  0  0  0  0  0  0  0
  -17.5860  -39.0956   -6.7724 C   0  0  0  0  0  0  0  0  0  0  0  0
  -18.7238  -39.6985   -7.1783 N   0  0  0  0  0  0  0  0  0  0  0  0
  -20.0418  -39.2890   -7.2370 C   0  0  0  0  0  0  0  0  0  0  0  0
  -21.0174  -39.5696   -6.0969 C   0  0  0  0  0  0  0  0  0  0  0  0
  -21.1918  -40.2724   -7.3661 C   0  0  0  0  0  0  0  0  0  0  0  0
  -20.3192  -38.0138   -8.0280 C   0  0  0  0  0  0  0  0  0  0  0  0
  -19.6007  -37.5949   -9.0931 C   0  0  0  0  0  0  0  0  0  0  0  0
  -19.9219  -36.4176   -9.7851 C   0  0  0  0  0  0  0  0  0  0  0  0
  -20.9968  -35.6706   -9.3691 C   0  0  0  0  0  0  0  0  0  0  0  0
  -21.7424  -36.0786   -8.2869 C   0  0  0  0  0  0  0  0  0  0  0  0
  -21.3931  -37.2494   -7.6280 C   0  0  0  0  0  0  0  0  0  0  0  0
  -19.0959  -36.0048  -10.9442 C   0  0  0  0  0  0  0  0  0  0  0  0
  -17.8835  -35.1960  -10.5349 C   0  0  0  0  0  0  0  0  0  0  0  0
  -19.9282  -35.2897  -11.9908 C   0  0  0  0  0  0  0  0  0  0  0  0
  -18.5521  -37.2618  -11.6394 C   0  0  0  0  0  0  0  0  0  0  0  0
  -17.2113  -44.3632  -12.0946 N   0  0  0  0  0  0  0  0  0  0  0  0
  1  2  1  0
  2  3  1  0
  3  4  1  0
  4  5  2  0
  5  6  1  0
  6  7  2  0
  7  8  1  0
  8  9  1  0
  9 10  1  0
 10 11  1  0
 11 12  1  0
 12 13  1  0
 13 14  1  0
 14 15  1  0
 15 16  1  0
 16 17  1  0
 17 18  1  1
 17 19  1  0
 20 19  1  6
 20 21  1  0
 21 22  1  0
 22 23  2  0
 20 24  1  0
 24 25  1  1
 24 26  1  0
 26 27  1  0
 27 28  1  0
 28 29  1  0
 29 30  1  0
 28 31  1  0
 31 32  2  0
 32 33  1  0
 33 34  2  0
 34 35  1  0
 35 36  2  0
 33 37  1  0
 37 38  1  0
 37 39  1  0
 37 40  1  0
  8 41  2  0
 22  6  1  0
 30 28  1  0
 36 31  1  0
 41  4  1  0
M  END
$$$$
