
     RDKit          3D

 41 44  0  0  0  0  0  0  0  0999 V2000
  -21.4173  -46.3569   -6.2819 C   0  0  0  0  0  0  0  0  0  0  0  0
  -20.1888  -46.7541   -6.7412 O   0  0  0  0  0  0  0  0  0  0  0  0
  -20.1363  -46.8905   -8.1022 C   0  0  0  0  0  0  0  0  0  0  0  0
  -19.1687  -45.9809   -8.7745 C   0  0  0  0  0  0  0  0  0  0  0  0
  -18.8559  -44.7656   -8.2443 C   0  0  0  0  0  0  0  0  0  0  0  0
  -17.9251  -43.8423   -8.8170 C   0  0  0  0  0  0  0  0  0  0  0  0
  -17.3112  -44.2295   -9.9900 C   0  0  0  0  0  0  0  0  0  0  0  0
  -17.6199  -45.4444  -10.5237 C   0  0  0  0  0  0  0  0  0  0  0  0
  -17.1853  -46.1482  -11.6986 N   0  0  0  0  0  0  0  0  0  0  0  0
  -15.8574  -46.4650  -12.1623 C   0  0  0  0  0  0  0  0  0  0  0  0
  -15.3632  -47.7874  -11.6157 C   0  0  0  0  0  0  0  0  0  0  0  0
  -13.8877  -47.7366  -11.2537 C   0  0  0  0  0  0  0  0  0  0  0  0
  -13.6573  -46.7509  -10.1423 C   0  0  0  0  0  0  0  0  0  0  0  0
  -13.1189  -45.5707  -10.6515 O   0  0  0  0  0  0  0  0  0  0  0  0
  -12.8669  -44.6780   -9.6162 C   0  0  0  0  0  0  0  0  0  0  0  0
  -13.5412  -43.3816   -9.9677 C   0  0  0  0  0  0  0  0  0  0  0  0
  -14.3214  -42.7983   -8.7896 C   0  0  1  0  0  0  0  0  0  0  0  0
  -13.2593  -42.3874   -7.7736 C   0  0  0  0  0  0  0  0  0  0  0  0
  -14.9714  -41.5425   -9.2733 C   0  0  0  0  0  0  0  0  0  0  0  0
  -15.8606  -40.9186   -8.2482 C   0  0  2  0  0  0  0  0  0  0  0  0
  -16.7928  -41.7706   -7.5708 N   0  0  0  0  0  0  0  0  0  0  0  0
  -17.8013  -42.6200   -8.0010 C   0  0  0  0  0  0  0  0  0  0  0  0
  -18.9860  -42.1860   -7.5247 O   0  0  0  0  0  0  0  0  0  0  0  0
  -16.4557  -39.6252   -8.7946 C   0  0  2  0  0  0  0  0  0  0  0  0
  -15.4073  -38.7527   -8.9212 O   0  0  0  0  0  0  0  0  0  0  0  0
  -17.4840  -39.1609   -7.8093 C   0  0  0  0  0  0  0  0  0  0  0  0
  -18.7781  -38.9204   -8.1093 N   0  0  0  0  0  0  0  0  0  0  0  0
  -19.7987  -38.2719   -7.4414 C   0  0  0  0  0  0  0  0  0  0  0  0
  -19.6791  -37.9015   -5.9653 C   0  0  0  0  0  0  0  0  0  0  0  0
  -20.6183  -38.9500   -6.3576 C   0  0  0  0  0  0  0  0  0  0  0  0
  -20.6643  -37.3330   -8.2769 C   0  0  0  0  0  0  0  0  0  0  0  0
  -20.2532  -36.1485   -8.7810 C   0  0  0  0  0  0  0  0  0  0  0  0
  -21.0989  -35.3410   -9.5559 C   0  0  0  0  0  0  0  0  0  0  0  0
  -22.3799  -35.7664   -9.8100 C   0  0  0  0  0  0  0  0  0  0  0  0
  -22.8195  -36.9692   -9.3066 C   0  0  0  0  0  0  0  0  0  0  0  0
  -21.9529  -37.7402   -8.5440 C   0  0  0  0  0  0  0  0  0  0  0  0
  -20.5951  -34.0495  -10.0797 C   0  0  0  0  0  0  0  0  0  0  0  0
  -20.8526  -32.8979   -9.1314 C   0  0  0  0  0  0  0  0  0  0  0  0
  -21.1297  -33.7694  -11.4708 C   0  0  0  0  0  0  0  0  0  0  0  0
  -19.0696  -34.1376  -10.2353 C   0  0  0  0  0  0  0  0  0  0  0  0
  -18.5437  -46.2772   -9.8884 N   0  0  0  0  0  0  0  0  0  0  0  0
  1  2  1  0
  2  3  1  0
  3  4  1  0
  4  5  2  0
  5  6  1  0
  6  7  2  0
  7  8  1  0
  8  9  1  0
  9 10  1  0
 10 11  1  0
 11 12  1  0
 12 13  1  0
 13 14  1  0
 14 15  1  0
 15 16  1  0
 16 17  1  0
 17 18  1  1
 17 19  1  0
 20 19  1  6
 20 21  1  0
 21 22  1  0
 22 23  2  0
 20 24  1  0
 24 25  1  1
 24 26  1  0
 26 27  1  0
 27 28  1  0
 28 29  1  0
 29 30  1  0
 28 31  1  0
 31 32  2  0
 32 33  1  0
 33 34  2  0
 34 35  1  0
 35 36  2  0
 33 37  1  0
 37 38  1  0
 37 39  1  0
 37 40  1  0
  8 41  2  0
 22  6  1  0
 30 28  1  0
 36 31  1  0
 41  4  1  0
M  END
$$$$
