
     RDKit          3D

 41 44  0  0  0  0  0  0  0  0999 V2000
  -18.3888  -48.7512   -7.7255 C   0  0  0  0  0  0  0  0  0  0  0  0
  -18.3504  -47.4965   -7.1757 O   0  0  0  0  0  0  0  0  0  0  0  0
  -19.4387  -46.7303   -7.4954 C   0  0  0  0  0  0  0  0  0  0  0  0
  -19.3873  -45.3391   -6.9688 C   0  0  0  0  0  0  0  0  0  0  0  0
  -18.7465  -44.3489   -7.6505 C   0  0  0  0  0  0  0  0  0  0  0  0
  -18.6665  -42.9859   -7.2232 C   0  0  0  0  0  0  0  0  0  0  0  0
  -19.2896  -42.6726   -6.0331 C   0  0  0  0  0  0  0  0  0  0  0  0
  -19.9328  -43.6592   -5.3481 C   0  0  0  0  0  0  0  0  0  0  0  0
  -20.6653  -43.6899   -4.1123 N   0  0  0  0  0  0  0  0  0  0  0  0
  -21.7686  -42.8807   -3.6580 C   0  0  0  0  0  0  0  0  0  0  0  0
  -23.1066  -43.4647   -4.0584 C   0  0  0  0  0  0  0  0  0  0  0  0
  -24.0957  -42.3870   -4.4721 C   0  0  0  0  0  0  0  0  0  0  0  0
  -23.6048  -41.6727   -5.7004 C   0  0  0  0  0  0  0  0  0  0  0  0
  -23.0747  -40.4313   -5.3538 O   0  0  0  0  0  0  0  0  0  0  0  0
  -22.6615  -39.7556   -6.4962 C   0  0  0  0  0  0  0  0  0  0  0  0
  -21.2329  -39.3417   -6.2802 C   0  0  0  0  0  0  0  0  0  0  0  0
  -20.3538  -39.6456   -7.4935 C   0  0  1  0  0  0  0  0  0  0  0  0
  -20.8417  -38.6977   -8.5856 C   0  0  0  0  0  0  0  0  0  0  0  0
  -18.9627  -39.2272   -7.1423 C   0  0  0  0  0  0  0  0  0  0  0  0
  -17.9699  -39.5676   -8.2050 C   0  0  2  0  0  0  0  0  0  0  0  0
  -18.0035  -40.8948   -8.7447 N   0  0  0  0  0  0  0  0  0  0  0  0
  -17.9109  -42.1596   -8.1831 C   0  0  0  0  0  0  0  0  0  0  0  0
  -16.8201  -42.7864   -8.6688 O   0  0  0  0  0  0  0  0  0  0  0  0
  -16.5844  -39.0771   -7.7979 C   0  0  2  0  0  0  0  0  0  0  0  0
  -16.7925  -37.9943   -6.9850 O   0  0  0  0  0  0  0  0  0  0  0  0
  -15.8517  -38.7279   -9.0568 C   0  0  0  0  0  0  0  0  0  0  0  0
  -14.7599  -39.3782   -9.5126 N   0  0  0  0  0  0  0  0  0  0  0  0
  -13.5228  -38.9530   -9.9565 C   0  0  0  0  0  0  0  0  0  0  0  0
  -12.3284  -39.9014  -10.0235 C   0  0  0  0  0  0  0  0  0  0  0  0
  -12.3264  -38.8305   -9.0292 C   0  0  0  0  0  0  0  0  0  0  0  0
  -13.5247  -37.8388  -10.9994 C   0  0  0  0  0  0  0  0  0  0  0  0
  -12.4536  -37.0797  -11.3193 C   0  0  0  0  0  0  0  0  0  0  0  0
  -12.5220  -36.0805  -12.3016 C   0  0  0  0  0  0  0  0  0  0  0  0
  -13.7104  -35.8687  -12.9570 C   0  0  0  0  0  0  0  0  0  0  0  0
  -14.8138  -36.6303  -12.6472 C   0  0  0  0  0  0  0  0  0  0  0  0
  -14.7065  -37.6094  -11.6691 C   0  0  0  0  0  0  0  0  0  0  0  0
  -11.3160  -35.2758  -12.6083 C   0  0  0  0  0  0  0  0  0  0  0  0
  -10.7756  -34.5528  -11.3930 C   0  0  0  0  0  0  0  0  0  0  0  0
  -11.5610  -34.3307  -13.7685 C   0  0  0  0  0  0  0  0  0  0  0  0
  -10.1957  -36.2176  -13.0744 C   0  0  0  0  0  0  0  0  0  0  0  0
  -19.9554  -44.9629   -5.8486 N   0  0  0  0  0  0  0  0  0  0  0  0
  1  2  1  0
  2  3  1  0
  3  4  1  0
  4  5  2  0
  5  6  1  0
  6  7  2  0
  7  8  1  0
  8  9  1  0
  9 10  1  0
 10 11  1  0
 11 12  1  0
 12 13  1  0
 13 14  1  0
 14 15  1  0
 15 16  1  0
 16 17  1  0
 17 18  1  6
 17 19  1  0
 20 19  1  1
 20 21  1  0
 21 22  1  0
 22 23  2  0
 20 24  1  0
 24 25  1  1
 24 26  1  0
 26 27  1  0
 27 28  1  0
 28 29  1  0
 29 30  1  0
 28 31  1  0
 31 32  2  0
 32 33  1  0
 33 34  2  0
 34 35  1  0
 35 36  2  0
 33 37  1  0
 37 38  1  0
 37 39  1  0
 37 40  1  0
  8 41  2  0
 22  6  1  0
 30 28  1  0
 36 31  1  0
 41  4  1  0
M  END
$$$$
