
     RDKit          3D

 32 32  0  0  0  0  0  0  0  0999 V2000
  -11.3503  -35.9898  -14.0690 C   0  0  0  0  0  0  0  0  0  0  0  0
  -12.2863  -36.7238  -13.1031 C   0  0  0  0  0  0  0  0  0  0  0  0
  -13.5679  -36.0476  -12.8680 C   0  0  0  0  0  0  0  0  0  0  0  0
  -14.6068  -36.6607  -12.0345 C   0  0  0  0  0  0  0  0  0  0  0  0
  -14.1929  -37.5297  -10.9922 N   0  0  0  0  0  0  0  0  0  0  0  0
  -14.4754  -38.8865  -10.7820 C   0  0  0  0  0  0  0  0  0  0  0  0
  -14.7786  -39.6306  -11.7326 O   0  0  0  0  0  0  0  0  0  0  0  0
  -14.4165  -39.4670   -9.3967 C   0  0  2  0  0  0  0  0  0  0  0  0
  -13.2669  -40.4195   -9.2473 C   0  0  0  0  0  0  0  0  0  0  0  0
  -15.7169  -40.2327   -9.1786 C   0  0  0  0  0  0  0  0  0  0  0  0
  -16.7555  -39.3396   -8.6016 C   0  0  2  0  0  0  0  0  0  0  0  0
  -16.1626  -38.3685   -7.7500 O   0  0  0  0  0  0  0  0  0  0  0  0
  -17.7742  -40.1431   -7.7779 C   0  0  2  0  0  0  0  0  0  0  0  0
  -18.0332  -39.4803   -6.4766 C   0  0  0  0  0  0  0  0  0  0  0  0
  -19.3319  -38.7229   -6.4076 C   0  0  2  0  0  0  0  0  0  0  0  0
  -19.2863  -37.7168   -5.2766 C   0  0  0  0  0  0  0  0  0  0  0  0
  -20.5180  -39.6411   -6.2116 C   0  0  0  0  0  0  0  0  0  0  0  0
  -21.8128  -38.9084   -6.2960 C   0  0  0  0  0  0  0  0  0  0  0  0
  -22.9619  -39.8630   -5.9416 C   0  0  0  0  0  0  0  0  0  0  0  0
  -22.6062  -41.2720   -6.3883 C   0  0  0  0  0  0  0  0  0  0  0  0
  -23.6767  -42.2741   -6.1563 C   0  0  2  0  0  0  0  0  0  0  0  0
  -24.5938  -41.7103   -5.0669 C   0  0  0  0  0  0  0  0  0  0  0  0
  -23.2082  -43.6070   -5.6956 C   0  0  0  0  0  0  0  0  0  0  0  0
  -21.7135  -43.8166   -5.7495 C   0  0  0  0  0  0  0  0  0  0  0  0
  -21.1417  -43.6451   -7.0861 C   0  0  0  0  0  0  0  0  0  0  0  0
  -21.8782  -43.7855   -8.1282 O   0  0  0  0  0  0  0  0  0  0  0  0
  -19.7731  -43.3233   -7.2461 N   0  0  0  0  0  0  0  0  0  0  0  0
  -18.8909  -42.9351   -6.1556 C   0  0  1  0  0  0  0  0  0  0  0  0
  -18.7044  -44.1851   -5.3122 C   0  0  0  0  0  0  0  0  0  0  0  0
  -17.5849  -42.4534   -6.6577 C   0  0  0  0  0  0  0  0  0  0  0  0
  -16.5871  -43.0000   -6.0521 O   0  0  0  0  0  0  0  0  0  0  0  0
  -17.3259  -41.5183   -7.6659 N   0  0  0  0  0  0  0  0  0  0  0  0
  1  2  1  0
  2  3  1  0
  3  4  1  0
  4  5  1  0
  5  6  1  0
  6  7  2  0
  6  8  1  0
  8  9  1  6
  8 10  1  0
 10 11  1  0
 11 12  1  1
 11 13  1  0
 13 14  1  1
 14 15  1  0
 15 16  1  1
 15 17  1  0
 17 18  1  0
 18 19  1  0
 19 20  1  0
 20 21  1  0
 21 22  1  1
 21 23  1  0
 23 24  1  0
 24 25  1  0
 25 26  2  0
 25 27  1  0
 27 28  1  0
 28 29  1  1
 28 30  1  0
 30 31  2  0
 30 32  1  0
 32 13  1  0
M  END
$$$$
