
     RDKit          3D

 32 32  0  0  0  0  0  0  0  0999 V2000
  -16.5138  -35.2855  -12.3175 C   0  0  0  0  0  0  0  0  0  0  0  0
  -15.5980  -36.4605  -11.9586 C   0  0  0  0  0  0  0  0  0  0  0  0
  -14.1637  -36.1695  -12.0739 C   0  0  0  0  0  0  0  0  0  0  0  0
  -13.1568  -37.1102  -11.5730 C   0  0  0  0  0  0  0  0  0  0  0  0
  -13.4220  -38.4977  -11.7058 N   0  0  0  0  0  0  0  0  0  0  0  0
  -14.4337  -39.2824  -11.1352 C   0  0  0  0  0  0  0  0  0  0  0  0
  -15.3171  -39.7994  -11.8434 O   0  0  0  0  0  0  0  0  0  0  0  0
  -14.4675  -39.5126   -9.6501 C   0  0  2  0  0  0  0  0  0  0  0  0
  -13.4603  -40.5420   -9.2295 C   0  0  0  0  0  0  0  0  0  0  0  0
  -15.8623  -40.0264   -9.3104 C   0  0  0  0  0  0  0  0  0  0  0  0
  -16.3985  -39.3231   -8.1156 C   0  0  2  0  0  0  0  0  0  0  0  0
  -15.3862  -39.1690   -7.1302 O   0  0  0  0  0  0  0  0  0  0  0  0
  -17.5611  -40.1106   -7.4911 C   0  0  2  0  0  0  0  0  0  0  0  0
  -17.9695  -39.5042   -6.2007 C   0  0  0  0  0  0  0  0  0  0  0  0
  -19.2269  -38.6797   -6.2668 C   0  0  2  0  0  0  0  0  0  0  0  0
  -19.2935  -37.7390   -5.0819 C   0  0  0  0  0  0  0  0  0  0  0  0
  -20.4716  -39.5390   -6.2929 C   0  0  0  0  0  0  0  0  0  0  0  0
  -21.7046  -38.7313   -6.5116 C   0  0  0  0  0  0  0  0  0  0  0  0
  -22.9370  -39.6373   -6.3781 C   0  0  0  0  0  0  0  0  0  0  0  0
  -22.5899  -41.0385   -6.8553 C   0  0  0  0  0  0  0  0  0  0  0  0
  -23.7295  -41.9898   -6.8348 C   0  0  2  0  0  0  0  0  0  0  0  0
  -24.7634  -41.4338   -5.8510 C   0  0  0  0  0  0  0  0  0  0  0  0
  -23.3957  -43.3694   -6.3948 C   0  0  0  0  0  0  0  0  0  0  0  0
  -21.9202  -43.6593   -6.2535 C   0  0  0  0  0  0  0  0  0  0  0  0
  -21.1573  -43.4498   -7.4852 C   0  0  0  0  0  0  0  0  0  0  0  0
  -21.7447  -43.4933   -8.6258 O   0  0  0  0  0  0  0  0  0  0  0  0
  -19.7659  -43.1973   -7.4342 N   0  0  0  0  0  0  0  0  0  0  0  0
  -19.0294  -42.9175   -6.2106 C   0  0  1  0  0  0  0  0  0  0  0  0
  -19.0246  -44.2188   -5.4263 C   0  0  0  0  0  0  0  0  0  0  0  0
  -17.6438  -42.4839   -6.4968 C   0  0  0  0  0  0  0  0  0  0  0  0
  -16.7693  -43.1170   -5.7928 O   0  0  0  0  0  0  0  0  0  0  0  0
  -17.1999  -41.5129   -7.4011 N   0  0  0  0  0  0  0  0  0  0  0  0
  1  2  1  0
  2  3  1  0
  3  4  1  0
  4  5  1  0
  5  6  1  0
  6  7  2  0
  6  8  1  0
  8  9  1  6
  8 10  1  0
 10 11  1  0
 11 12  1  1
 11 13  1  0
 13 14  1  1
 14 15  1  0
 15 16  1  1
 15 17  1  0
 17 18  1  0
 18 19  1  0
 19 20  1  0
 20 21  1  0
 21 22  1  1
 21 23  1  0
 23 24  1  0
 24 25  1  0
 25 26  2  0
 25 27  1  0
 27 28  1  0
 28 29  1  1
 28 30  1  0
 30 31  2  0
 30 32  1  0
 32 13  1  0
M  END
$$$$
