
     RDKit          3D

 32 32  0  0  0  0  0  0  0  0999 V2000
  -11.5846  -35.8733  -15.1685 C   0  0  0  0  0  0  0  0  0  0  0  0
  -12.2030  -35.4307  -13.8382 C   0  0  0  0  0  0  0  0  0  0  0  0
  -11.7942  -36.2361  -12.6809 C   0  0  0  0  0  0  0  0  0  0  0  0
  -12.4022  -37.5434  -12.4145 C   0  0  0  0  0  0  0  0  0  0  0  0
  -13.0717  -37.7230  -11.1766 N   0  0  0  0  0  0  0  0  0  0  0  0
  -13.6997  -38.8583  -10.6459 C   0  0  0  0  0  0  0  0  0  0  0  0
  -14.2092  -39.7141  -11.3923 O   0  0  0  0  0  0  0  0  0  0  0  0
  -13.7682  -39.0605   -9.1579 C   0  0  2  0  0  0  0  0  0  0  0  0
  -12.5372  -39.7426   -8.6378 C   0  0  0  0  0  0  0  0  0  0  0  0
  -14.9738  -39.9529   -8.8843 C   0  0  0  0  0  0  0  0  0  0  0  0
  -16.1396  -39.1353   -8.4579 C   0  0  2  0  0  0  0  0  0  0  0  0
  -15.7934  -38.3079   -7.3555 O   0  0  0  0  0  0  0  0  0  0  0  0
  -17.3138  -40.0322   -8.0354 C   0  0  2  0  0  0  0  0  0  0  0  0
  -17.7556  -39.7009   -6.6588 C   0  0  0  0  0  0  0  0  0  0  0  0
  -19.0142  -38.8789   -6.5864 C   0  0  2  0  0  0  0  0  0  0  0  0
  -19.1130  -38.1992   -5.2367 C   0  0  0  0  0  0  0  0  0  0  0  0
  -20.2546  -39.7135   -6.8173 C   0  0  0  0  0  0  0  0  0  0  0  0
  -21.4851  -38.8769   -6.8969 C   0  0  0  0  0  0  0  0  0  0  0  0
  -22.7167  -39.7898   -6.9809 C   0  0  0  0  0  0  0  0  0  0  0  0
  -22.3528  -41.0648   -7.7247 C   0  0  0  0  0  0  0  0  0  0  0  0
  -23.4887  -41.9991   -7.9262 C   0  0  2  0  0  0  0  0  0  0  0  0
  -24.5482  -41.6541   -6.8754 C   0  0  0  0  0  0  0  0  0  0  0  0
  -23.1602  -43.4398   -7.7684 C   0  0  0  0  0  0  0  0  0  0  0  0
  -21.6875  -43.7540   -7.6530 C   0  0  0  0  0  0  0  0  0  0  0  0
  -20.8959  -43.2988   -8.7973 C   0  0  0  0  0  0  0  0  0  0  0  0
  -21.4555  -43.1084   -9.9369 O   0  0  0  0  0  0  0  0  0  0  0  0
  -19.5072  -43.0635   -8.6620 N   0  0  0  0  0  0  0  0  0  0  0  0
  -18.8015  -43.0395   -7.3894 C   0  0  1  0  0  0  0  0  0  0  0  0
  -18.8105  -44.4733   -6.8867 C   0  0  0  0  0  0  0  0  0  0  0  0
  -17.4111  -42.5582   -7.5475 C   0  0  0  0  0  0  0  0  0  0  0  0
  -16.5514  -43.3223   -6.9660 O   0  0  0  0  0  0  0  0  0  0  0  0
  -16.9494  -41.4238   -8.2240 N   0  0  0  0  0  0  0  0  0  0  0  0
  1  2  1  0
  2  3  1  0
  3  4  1  0
  4  5  1  0
  5  6  1  0
  6  7  2  0
  6  8  1  0
  8  9  1  6
  8 10  1  0
 10 11  1  0
 11 12  1  1
 11 13  1  0
 13 14  1  1
 14 15  1  0
 15 16  1  1
 15 17  1  0
 17 18  1  0
 18 19  1  0
 19 20  1  0
 20 21  1  0
 21 22  1  1
 21 23  1  0
 23 24  1  0
 24 25  1  0
 25 26  2  0
 25 27  1  0
 27 28  1  0
 28 29  1  6
 28 30  1  0
 30 31  2  0
 30 32  1  0
 32 13  1  0
M  END
$$$$
