
     RDKit          3D

 32 32  0  0  0  0  0  0  0  0999 V2000
  -12.0655  -34.9054  -14.8439 C   0  0  0  0  0  0  0  0  0  0  0  0
  -12.3545  -36.3883  -14.5884 C   0  0  0  0  0  0  0  0  0  0  0  0
  -13.1833  -36.6503  -13.4053 C   0  0  0  0  0  0  0  0  0  0  0  0
  -13.6421  -38.0059  -13.0864 C   0  0  0  0  0  0  0  0  0  0  0  0
  -13.8250  -38.3392  -11.7195 N   0  0  0  0  0  0  0  0  0  0  0  0
  -14.5448  -39.3902  -11.1347 C   0  0  0  0  0  0  0  0  0  0  0  0
  -15.1583  -40.2135  -11.8383 O   0  0  0  0  0  0  0  0  0  0  0  0
  -14.5877  -39.5396   -9.6396 C   0  0  2  0  0  0  0  0  0  0  0  0
  -13.3789  -40.2635   -9.1238 C   0  0  0  0  0  0  0  0  0  0  0  0
  -15.8279  -40.3626   -9.3092 C   0  0  0  0  0  0  0  0  0  0  0  0
  -16.9406  -39.4760   -8.8787 C   0  0  2  0  0  0  0  0  0  0  0  0
  -16.4411  -38.3712   -8.1374 O   0  0  0  0  0  0  0  0  0  0  0  0
  -17.9380  -40.2381   -7.9921 C   0  0  2  0  0  0  0  0  0  0  0  0
  -18.0089  -39.6283   -6.6419 C   0  0  0  0  0  0  0  0  0  0  0  0
  -19.2245  -38.7732   -6.4045 C   0  0  2  0  0  0  0  0  0  0  0  0
  -18.9809  -37.8370   -5.2394 C   0  0  0  0  0  0  0  0  0  0  0  0
  -20.4599  -39.6019   -6.1295 C   0  0  0  0  0  0  0  0  0  0  0  0
  -21.6889  -38.7635   -6.0461 C   0  0  0  0  0  0  0  0  0  0  0  0
  -22.8750  -39.6399   -5.6191 C   0  0  0  0  0  0  0  0  0  0  0  0
  -22.6876  -41.0468   -6.1642 C   0  0  0  0  0  0  0  0  0  0  0  0
  -23.8120  -41.9702   -5.8691 C   0  0  2  0  0  0  0  0  0  0  0  0
  -24.5649  -41.3942   -4.6662 C   0  0  0  0  0  0  0  0  0  0  0  0
  -23.4164  -43.3597   -5.5209 C   0  0  0  0  0  0  0  0  0  0  0  0
  -21.9579  -43.6860   -5.7383 C   0  0  0  0  0  0  0  0  0  0  0  0
  -21.5086  -43.4890   -7.1176 C   0  0  0  0  0  0  0  0  0  0  0  0
  -22.3540  -43.5126   -8.0834 O   0  0  0  0  0  0  0  0  0  0  0  0
  -20.1401  -43.2706   -7.4031 N   0  0  0  0  0  0  0  0  0  0  0  0
  -19.1242  -43.0148   -6.3929 C   0  0  1  0  0  0  0  0  0  0  0  0
  -18.9631  -44.3197   -5.6314 C   0  0  0  0  0  0  0  0  0  0  0  0
  -17.8378  -42.6136   -7.0045 C   0  0  0  0  0  0  0  0  0  0  0  0
  -16.8356  -43.2711   -6.5308 O   0  0  0  0  0  0  0  0  0  0  0  0
  -17.6005  -41.6491   -7.9900 N   0  0  0  0  0  0  0  0  0  0  0  0
  1  2  1  0
  2  3  1  0
  3  4  1  0
  4  5  1  0
  5  6  1  0
  6  7  2  0
  6  8  1  0
  8  9  1  6
  8 10  1  0
 10 11  1  0
 11 12  1  1
 11 13  1  0
 13 14  1  1
 14 15  1  0
 15 16  1  1
 15 17  1  0
 17 18  1  0
 18 19  1  0
 19 20  1  0
 20 21  1  0
 21 22  1  1
 21 23  1  0
 23 24  1  0
 24 25  1  0
 25 26  2  0
 25 27  1  0
 27 28  1  0
 28 29  1  6
 28 30  1  0
 30 31  2  0
 30 32  1  0
 32 13  1  0
M  END
$$$$
