
     RDKit          3D

 32 32  0  0  0  0  0  0  0  0999 V2000
  -15.4163  -34.9009  -13.0489 C   0  0  0  0  0  0  0  0  0  0  0  0
  -14.9790  -36.3692  -13.0711 C   0  0  0  0  0  0  0  0  0  0  0  0
  -13.6978  -36.6312  -12.4037 C   0  0  0  0  0  0  0  0  0  0  0  0
  -13.1919  -37.9981  -12.2442 C   0  0  0  0  0  0  0  0  0  0  0  0
  -12.8925  -38.4450  -10.9313 N   0  0  0  0  0  0  0  0  0  0  0  0
  -13.6311  -39.2632  -10.0654 C   0  0  0  0  0  0  0  0  0  0  0  0
  -14.5275  -40.0090  -10.5007 O   0  0  0  0  0  0  0  0  0  0  0  0
  -13.3504  -39.2521   -8.5887 C   0  0  2  0  0  0  0  0  0  0  0  0
  -12.0938  -40.0038   -8.2615 C   0  0  0  0  0  0  0  0  0  0  0  0
  -14.5254  -39.9440   -7.9064 C   0  0  0  0  0  0  0  0  0  0  0  0
  -15.7643  -39.1372   -8.0602 C   0  0  2  0  0  0  0  0  0  0  0  0
  -15.7719  -38.0529   -7.1416 O   0  0  0  0  0  0  0  0  0  0  0  0
  -17.0132  -39.9946   -7.8018 C   0  0  2  0  0  0  0  0  0  0  0  0
  -17.7627  -39.4856   -6.6275 C   0  0  0  0  0  0  0  0  0  0  0  0
  -18.9955  -38.6922   -6.9679 C   0  0  2  0  0  0  0  0  0  0  0  0
  -19.4021  -37.8337   -5.7885 C   0  0  0  0  0  0  0  0  0  0  0  0
  -20.1547  -39.5805   -7.3623 C   0  0  0  0  0  0  0  0  0  0  0  0
  -21.3242  -38.7931   -7.8446 C   0  0  0  0  0  0  0  0  0  0  0  0
  -22.5101  -39.7382   -8.0845 C   0  0  0  0  0  0  0  0  0  0  0  0
  -21.9936  -41.0952   -8.5352 C   0  0  0  0  0  0  0  0  0  0  0  0
  -23.0592  -42.0756   -8.8628 C   0  0  2  0  0  0  0  0  0  0  0  0
  -24.3325  -41.6133   -8.1482 C   0  0  0  0  0  0  0  0  0  0  0  0
  -22.7904  -43.4719   -8.4311 C   0  0  0  0  0  0  0  0  0  0  0  0
  -21.3889  -43.7314   -7.9315 C   0  0  0  0  0  0  0  0  0  0  0  0
  -20.3465  -43.4210   -8.9114 C   0  0  0  0  0  0  0  0  0  0  0  0
  -20.6211  -43.4047  -10.1654 O   0  0  0  0  0  0  0  0  0  0  0  0
  -19.0263  -43.1356   -8.4899 N   0  0  0  0  0  0  0  0  0  0  0  0
  -18.6390  -42.9177   -7.1040 C   0  0  1  0  0  0  0  0  0  0  0  0
  -18.7791  -44.2674   -6.4204 C   0  0  0  0  0  0  0  0  0  0  0  0
  -17.2459  -42.4297   -6.9989 C   0  0  0  0  0  0  0  0  0  0  0  0
  -16.5539  -43.0844   -6.1308 O   0  0  0  0  0  0  0  0  0  0  0  0
  -16.6276  -41.3897   -7.7018 N   0  0  0  0  0  0  0  0  0  0  0  0
  1  2  1  0
  2  3  1  0
  3  4  1  0
  4  5  1  0
  5  6  1  0
  6  7  2  0
  6  8  1  0
  8  9  1  6
  8 10  1  0
 10 11  1  0
 11 12  1  1
 11 13  1  0
 13 14  1  1
 14 15  1  0
 15 16  1  1
 15 17  1  0
 17 18  1  0
 18 19  1  0
 19 20  1  0
 20 21  1  0
 21 22  1  1
 21 23  1  0
 23 24  1  0
 24 25  1  0
 25 26  2  0
 25 27  1  0
 27 28  1  0
 28 29  1  1
 28 30  1  0
 30 31  2  0
 30 32  1  0
 32 13  1  0
M  END
$$$$
