
     RDKit          3D

 32 32  0  0  0  0  0  0  0  0999 V2000
  -11.3000  -35.8061  -14.1248 C   0  0  0  0  0  0  0  0  0  0  0  0
  -12.1183  -37.1013  -14.1537 C   0  0  0  0  0  0  0  0  0  0  0  0
  -12.9849  -37.2981  -12.9852 C   0  0  0  0  0  0  0  0  0  0  0  0
  -13.8338  -38.4873  -12.8627 C   0  0  0  0  0  0  0  0  0  0  0  0
  -14.7351  -38.5483  -11.7688 N   0  0  0  0  0  0  0  0  0  0  0  0
  -14.9362  -39.5600  -10.8197 C   0  0  0  0  0  0  0  0  0  0  0  0
  -15.6942  -40.5180  -11.0581 O   0  0  0  0  0  0  0  0  0  0  0  0
  -14.2355  -39.5028   -9.4910 C   0  0  2  0  0  0  0  0  0  0  0  0
  -12.9073  -40.1991   -9.5387 C   0  0  0  0  0  0  0  0  0  0  0  0
  -15.1280  -40.2213   -8.4851 C   0  0  0  0  0  0  0  0  0  0  0  0
  -16.2482  -39.3405   -8.0620 C   0  0  2  0  0  0  0  0  0  0  0  0
  -15.8430  -38.4944   -6.9945 O   0  0  0  0  0  0  0  0  0  0  0  0
  -17.4504  -40.1715   -7.5868 C   0  0  2  0  0  0  0  0  0  0  0  0
  -17.7438  -39.8969   -6.1590 C   0  0  0  0  0  0  0  0  0  0  0  0
  -18.9209  -38.9886   -5.9255 C   0  0  2  0  0  0  0  0  0  0  0  0
  -18.8478  -38.3916   -4.5357 C   0  0  0  0  0  0  0  0  0  0  0  0
  -20.2399  -39.7106   -6.0903 C   0  0  0  0  0  0  0  0  0  0  0  0
  -21.4010  -38.7801   -6.0097 C   0  0  0  0  0  0  0  0  0  0  0  0
  -22.7051  -39.5901   -6.0336 C   0  0  0  0  0  0  0  0  0  0  0  0
  -22.5109  -40.8384   -6.8794 C   0  0  0  0  0  0  0  0  0  0  0  0
  -23.7318  -41.6694   -7.0301 C   0  0  2  0  0  0  0  0  0  0  0  0
  -24.6655  -41.3136   -5.8693 C   0  0  0  0  0  0  0  0  0  0  0  0
  -23.5086  -43.1379   -6.9857 C   0  0  0  0  0  0  0  0  0  0  0  0
  -22.0617  -43.5692   -7.0228 C   0  0  0  0  0  0  0  0  0  0  0  0
  -21.3373  -43.1025   -8.2062 C   0  0  0  0  0  0  0  0  0  0  0  0
  -21.9756  -42.7975   -9.2775 O   0  0  0  0  0  0  0  0  0  0  0  0
  -19.9276  -42.9818   -8.1844 N   0  0  0  0  0  0  0  0  0  0  0  0
  -19.1154  -43.0932   -6.9819 C   0  0  1  0  0  0  0  0  0  0  0  0
  -19.1971  -44.5515   -6.5636 C   0  0  0  0  0  0  0  0  0  0  0  0
  -17.7094  -42.7091   -7.2378 C   0  0  0  0  0  0  0  0  0  0  0  0
  -16.8675  -43.5717   -6.7815 O   0  0  0  0  0  0  0  0  0  0  0  0
  -17.2173  -41.5716   -7.8872 N   0  0  0  0  0  0  0  0  0  0  0  0
  1  2  1  0
  2  3  1  0
  3  4  1  0
  4  5  1  0
  5  6  1  0
  6  7  2  0
  6  8  1  0
  8  9  1  6
  8 10  1  0
 10 11  1  0
 11 12  1  1
 11 13  1  0
 13 14  1  1
 14 15  1  0
 15 16  1  1
 15 17  1  0
 17 18  1  0
 18 19  1  0
 19 20  1  0
 20 21  1  0
 21 22  1  1
 21 23  1  0
 23 24  1  0
 24 25  1  0
 25 26  2  0
 25 27  1  0
 27 28  1  0
 28 29  1  6
 28 30  1  0
 30 31  2  0
 30 32  1  0
 32 13  1  0
M  END
$$$$
