
     RDKit          3D

 32 32  0  0  0  0  0  0  0  0999 V2000
  -14.2845  -35.0135  -13.2239 C   0  0  0  0  0  0  0  0  0  0  0  0
  -13.3823  -35.8916  -12.3504 C   0  0  0  0  0  0  0  0  0  0  0  0
  -13.7604  -37.3098  -12.3206 C   0  0  0  0  0  0  0  0  0  0  0  0
  -13.0318  -38.2711  -11.4871 C   0  0  0  0  0  0  0  0  0  0  0  0
  -13.6613  -39.5096  -11.1995 N   0  0  0  0  0  0  0  0  0  0  0  0
  -14.4148  -39.9023  -10.0847 C   0  0  0  0  0  0  0  0  0  0  0  0
  -15.5195  -40.4586  -10.2241 O   0  0  0  0  0  0  0  0  0  0  0  0
  -13.8973  -39.6555   -8.6951 C   0  0  2  0  0  0  0  0  0  0  0  0
  -12.7550  -40.5696   -8.3627 C   0  0  0  0  0  0  0  0  0  0  0  0
  -15.0465  -39.9402   -7.7344 C   0  0  0  0  0  0  0  0  0  0  0  0
  -16.3206  -39.3948   -8.2718 C   0  0  2  0  0  0  0  0  0  0  0  0
  -16.4505  -38.0171   -7.9482 O   0  0  0  0  0  0  0  0  0  0  0  0
  -17.5283  -40.1422   -7.6849 C   0  0  2  0  0  0  0  0  0  0  0  0
  -17.8728  -39.6079   -6.3449 C   0  0  0  0  0  0  0  0  0  0  0  0
  -19.0676  -38.6929   -6.3242 C   0  0  2  0  0  0  0  0  0  0  0  0
  -19.0483  -37.8427   -5.0712 C   0  0  0  0  0  0  0  0  0  0  0  0
  -20.3719  -39.4565   -6.3897 C   0  0  0  0  0  0  0  0  0  0  0  0
  -21.5457  -38.5483   -6.5228 C   0  0  0  0  0  0  0  0  0  0  0  0
  -22.8388  -39.3713   -6.4330 C   0  0  0  0  0  0  0  0  0  0  0  0
  -22.6017  -40.7534   -7.0203 C   0  0  0  0  0  0  0  0  0  0  0  0
  -23.8071  -41.6195   -7.0483 C   0  0  2  0  0  0  0  0  0  0  0  0
  -24.7834  -41.0673   -6.0054 C   0  0  0  0  0  0  0  0  0  0  0  0
  -23.5684  -43.0489   -6.7194 C   0  0  0  0  0  0  0  0  0  0  0  0
  -22.1161  -43.4536   -6.6294 C   0  0  0  0  0  0  0  0  0  0  0  0
  -21.3578  -43.2062   -7.8570 C   0  0  0  0  0  0  0  0  0  0  0  0
  -21.9633  -43.1208   -8.9858 O   0  0  0  0  0  0  0  0  0  0  0  0
  -19.9512  -43.0586   -7.8150 N   0  0  0  0  0  0  0  0  0  0  0  0
  -19.1787  -42.9260   -6.5887 C   0  0  1  0  0  0  0  0  0  0  0  0
  -19.2574  -44.2802   -5.9042 C   0  0  0  0  0  0  0  0  0  0  0  0
  -17.7694  -42.5722   -6.8693 C   0  0  0  0  0  0  0  0  0  0  0  0
  -16.9333  -43.3179   -6.2320 O   0  0  0  0  0  0  0  0  0  0  0  0
  -17.2690  -41.5695   -7.7071 N   0  0  0  0  0  0  0  0  0  0  0  0
  1  2  1  0
  2  3  1  0
  3  4  1  0
  4  5  1  0
  5  6  1  0
  6  7  2  0
  6  8  1  0
  8  9  1  1
  8 10  1  0
 10 11  1  0
 11 12  1  1
 11 13  1  0
 13 14  1  1
 14 15  1  0
 15 16  1  1
 15 17  1  0
 17 18  1  0
 18 19  1  0
 19 20  1  0
 20 21  1  0
 21 22  1  1
 21 23  1  0
 23 24  1  0
 24 25  1  0
 25 26  2  0
 25 27  1  0
 27 28  1  0
 28 29  1  6
 28 30  1  0
 30 31  2  0
 30 32  1  0
 32 13  1  0
M  END
$$$$
