
     RDKit          3D

 32 32  0  0  0  0  0  0  0  0999 V2000
  -10.1116  -36.4865  -14.9487 C   0  0  0  0  0  0  0  0  0  0  0  0
  -11.5602  -36.9821  -14.8856 C   0  0  0  0  0  0  0  0  0  0  0  0
  -12.0154  -37.3574  -13.5413 C   0  0  0  0  0  0  0  0  0  0  0  0
  -13.3870  -37.8195  -13.3071 C   0  0  0  0  0  0  0  0  0  0  0  0
  -13.8209  -37.9529  -11.9629 N   0  0  0  0  0  0  0  0  0  0  0  0
  -13.9929  -39.1023  -11.1793 C   0  0  0  0  0  0  0  0  0  0  0  0
  -13.7291  -40.2306  -11.6338 O   0  0  0  0  0  0  0  0  0  0  0  0
  -14.5022  -38.9892   -9.7696 C   0  0  2  0  0  0  0  0  0  0  0  0
  -13.6036  -39.7000   -8.8009 C   0  0  0  0  0  0  0  0  0  0  0  0
  -15.8757  -39.6505   -9.7374 C   0  0  0  0  0  0  0  0  0  0  0  0
  -16.8034  -38.8800   -8.8683 C   0  0  2  0  0  0  0  0  0  0  0  0
  -16.0801  -38.1635   -7.8767 O   0  0  0  0  0  0  0  0  0  0  0  0
  -17.7945  -39.8155   -8.1582 C   0  0  2  0  0  0  0  0  0  0  0  0
  -17.9843  -39.4014   -6.7467 C   0  0  0  0  0  0  0  0  0  0  0  0
  -19.2678  -38.6625   -6.4786 C   0  0  2  0  0  0  0  0  0  0  0  0
  -19.1564  -37.8813   -5.1860 C   0  0  0  0  0  0  0  0  0  0  0  0
  -20.4564  -39.5948   -6.3979 C   0  0  0  0  0  0  0  0  0  0  0  0
  -21.7433  -38.8521   -6.2850 C   0  0  0  0  0  0  0  0  0  0  0  0
  -22.8883  -39.8494   -6.0571 C   0  0  0  0  0  0  0  0  0  0  0  0
  -22.5731  -41.1544   -6.7705 C   0  0  0  0  0  0  0  0  0  0  0  0
  -23.6458  -42.1764   -6.6753 C   0  0  2  0  0  0  0  0  0  0  0  0
  -24.5041  -41.8171   -5.4587 C   0  0  0  0  0  0  0  0  0  0  0  0
  -23.1754  -43.5736   -6.4892 C   0  0  0  0  0  0  0  0  0  0  0  0
  -21.6877  -43.7777   -6.6515 C   0  0  0  0  0  0  0  0  0  0  0  0
  -21.1753  -43.3670   -7.9598 C   0  0  0  0  0  0  0  0  0  0  0  0
  -21.9606  -43.3098   -8.9738 O   0  0  0  0  0  0  0  0  0  0  0  0
  -19.8111  -43.0286   -8.1231 N   0  0  0  0  0  0  0  0  0  0  0  0
  -18.8747  -42.8518   -7.0231 C   0  0  1  0  0  0  0  0  0  0  0  0
  -18.6672  -44.2363   -6.4326 C   0  0  0  0  0  0  0  0  0  0  0  0
  -17.5864  -42.2931   -7.4901 C   0  0  0  0  0  0  0  0  0  0  0  0
  -16.5697  -42.9469   -7.0429 O   0  0  0  0  0  0  0  0  0  0  0  0
  -17.3607  -41.1903   -8.3212 N   0  0  0  0  0  0  0  0  0  0  0  0
  1  2  1  0
  2  3  1  0
  3  4  1  0
  4  5  1  0
  5  6  1  0
  6  7  2  0
  6  8  1  0
  8  9  1  1
  8 10  1  0
 10 11  1  0
 11 12  1  1
 11 13  1  0
 13 14  1  1
 14 15  1  0
 15 16  1  1
 15 17  1  0
 17 18  1  0
 18 19  1  0
 19 20  1  0
 20 21  1  0
 21 22  1  1
 21 23  1  0
 23 24  1  0
 24 25  1  0
 25 26  2  0
 25 27  1  0
 27 28  1  0
 28 29  1  6
 28 30  1  0
 30 31  2  0
 30 32  1  0
 32 13  1  0
M  END
$$$$
