
     RDKit          3D

 32 32  0  0  0  0  0  0  0  0999 V2000
  -12.3474  -36.9713  -16.0359 C   0  0  0  0  0  0  0  0  0  0  0  0
  -12.9387  -36.7738  -14.6361 C   0  0  0  0  0  0  0  0  0  0  0  0
  -12.3643  -37.6476  -13.6057 C   0  0  0  0  0  0  0  0  0  0  0  0
  -13.2216  -38.4605  -12.7373 C   0  0  0  0  0  0  0  0  0  0  0  0
  -13.1818  -38.2072  -11.3419 N   0  0  0  0  0  0  0  0  0  0  0  0
  -14.1158  -38.5111  -10.3419 C   0  0  0  0  0  0  0  0  0  0  0  0
  -15.2541  -38.9210  -10.6342 O   0  0  0  0  0  0  0  0  0  0  0  0
  -13.7548  -38.3452   -8.8921 C   0  0  2  0  0  0  0  0  0  0  0  0
  -12.3271  -38.7268   -8.6332 C   0  0  0  0  0  0  0  0  0  0  0  0
  -14.6618  -39.2783   -8.0973 C   0  0  0  0  0  0  0  0  0  0  0  0
  -15.9751  -38.6315   -7.8396 C   0  0  2  0  0  0  0  0  0  0  0  0
  -16.0116  -38.0784   -6.5310 O   0  0  0  0  0  0  0  0  0  0  0  0
  -17.1211  -39.6479   -7.9637 C   0  0  2  0  0  0  0  0  0  0  0  0
  -17.9250  -39.6838   -6.7179 C   0  0  0  0  0  0  0  0  0  0  0  0
  -19.2379  -38.9525   -6.7991 C   0  0  2  0  0  0  0  0  0  0  0  0
  -19.7400  -38.6317   -5.4068 C   0  0  0  0  0  0  0  0  0  0  0  0
  -20.2900  -39.7495   -7.5382 C   0  0  0  0  0  0  0  0  0  0  0  0
  -21.5391  -38.9653   -7.7508 C   0  0  0  0  0  0  0  0  0  0  0  0
  -22.6118  -39.8740   -8.3680 C   0  0  0  0  0  0  0  0  0  0  0  0
  -21.9462  -40.9112   -9.2584 C   0  0  0  0  0  0  0  0  0  0  0  0
  -22.8951  -41.8081   -9.9648 C   0  0  2  0  0  0  0  0  0  0  0  0
  -24.2135  -41.7730   -9.1861 C   0  0  0  0  0  0  0  0  0  0  0  0
  -22.4731  -43.2298  -10.0587 C   0  0  0  0  0  0  0  0  0  0  0  0
  -21.0524  -43.5081   -9.6283 C   0  0  0  0  0  0  0  0  0  0  0  0
  -20.0493  -42.7551  -10.3832 C   0  0  0  0  0  0  0  0  0  0  0  0
  -20.3214  -42.3097  -11.5561 O   0  0  0  0  0  0  0  0  0  0  0  0
  -18.7699  -42.5092   -9.8309 N   0  0  0  0  0  0  0  0  0  0  0  0
  -18.4120  -42.7746   -8.4454 C   0  0  1  0  0  0  0  0  0  0  0  0
  -18.4021  -44.2875   -8.3053 C   0  0  0  0  0  0  0  0  0  0  0  0
  -17.0823  -42.2180   -8.1110 C   0  0  0  0  0  0  0  0  0  0  0  0
  -16.3233  -43.0697   -7.5113 O   0  0  0  0  0  0  0  0  0  0  0  0
  -16.5825  -40.9352   -8.3610 N   0  0  0  0  0  0  0  0  0  0  0  0
  1  2  1  0
  2  3  1  0
  3  4  1  0
  4  5  1  0
  5  6  1  0
  6  7  2  0
  6  8  1  0
  8  9  1  6
  8 10  1  0
 10 11  1  0
 11 12  1  1
 11 13  1  0
 13 14  1  1
 14 15  1  0
 15 16  1  1
 15 17  1  0
 17 18  1  0
 18 19  1  0
 19 20  1  0
 20 21  1  0
 21 22  1  1
 21 23  1  0
 23 24  1  0
 24 25  1  0
 25 26  2  0
 25 27  1  0
 27 28  1  0
 28 29  1  6
 28 30  1  0
 30 31  2  0
 30 32  1  0
 32 13  1  0
M  END
$$$$
