
     RDKit          3D

 32 32  0  0  0  0  0  0  0  0999 V2000
  -12.2843  -36.4341  -14.8545 C   0  0  0  0  0  0  0  0  0  0  0  0
  -13.7402  -36.5516  -14.3916 C   0  0  0  0  0  0  0  0  0  0  0  0
  -13.9169  -37.2596  -13.1177 C   0  0  0  0  0  0  0  0  0  0  0  0
  -12.7625  -37.7272  -12.3440 C   0  0  0  0  0  0  0  0  0  0  0  0
  -12.9689  -38.0573  -10.9796 N   0  0  0  0  0  0  0  0  0  0  0  0
  -13.6195  -39.1581  -10.4053 C   0  0  0  0  0  0  0  0  0  0  0  0
  -14.0246  -40.1002  -11.1107 O   0  0  0  0  0  0  0  0  0  0  0  0
  -13.8396  -39.2177   -8.9195 C   0  0  2  0  0  0  0  0  0  0  0  0
  -12.6636  -39.8249   -8.2127 C   0  0  0  0  0  0  0  0  0  0  0  0
  -15.0601  -40.1010   -8.6848 C   0  0  0  0  0  0  0  0  0  0  0  0
  -16.2887  -39.2715   -8.5756 C   0  0  2  0  0  0  0  0  0  0  0  0
  -16.0362  -38.1030   -7.8072 O   0  0  0  0  0  0  0  0  0  0  0  0
  -17.4225  -40.0567   -7.8976 C   0  0  2  0  0  0  0  0  0  0  0  0
  -17.6781  -39.5329   -6.5337 C   0  0  0  0  0  0  0  0  0  0  0  0
  -18.8962  -38.6565   -6.4181 C   0  0  2  0  0  0  0  0  0  0  0  0
  -18.8062  -37.8053   -5.1689 C   0  0  0  0  0  0  0  0  0  0  0  0
  -20.1766  -39.4613   -6.3830 C   0  0  0  0  0  0  0  0  0  0  0  0
  -21.3856  -38.5911   -6.4224 C   0  0  0  0  0  0  0  0  0  0  0  0
  -22.6408  -39.4549   -6.2334 C   0  0  0  0  0  0  0  0  0  0  0  0
  -22.4064  -40.8291   -6.8401 C   0  0  0  0  0  0  0  0  0  0  0  0
  -23.5821  -41.7333   -6.7755 C   0  0  2  0  0  0  0  0  0  0  0  0
  -24.4911  -41.2119   -5.6585 C   0  0  0  0  0  0  0  0  0  0  0  0
  -23.2730  -43.1541   -6.4690 C   0  0  0  0  0  0  0  0  0  0  0  0
  -21.8060  -43.5122   -6.4935 C   0  0  0  0  0  0  0  0  0  0  0  0
  -21.1541  -43.2415   -7.7760 C   0  0  0  0  0  0  0  0  0  0  0  0
  -21.8483  -43.1761   -8.8539 O   0  0  0  0  0  0  0  0  0  0  0  0
  -19.7539  -43.0490   -7.8436 N   0  0  0  0  0  0  0  0  0  0  0  0
  -18.8926  -42.8911   -6.6812 C   0  0  1  0  0  0  0  0  0  0  0  0
  -18.8744  -44.2467   -5.9952 C   0  0  0  0  0  0  0  0  0  0  0  0
  -17.5215  -42.4927   -7.0703 C   0  0  0  0  0  0  0  0  0  0  0  0
  -16.6149  -43.2109   -6.5017 O   0  0  0  0  0  0  0  0  0  0  0  0
  -17.1203  -41.4750   -7.9427 N   0  0  0  0  0  0  0  0  0  0  0  0
  1  2  1  0
  2  3  1  0
  3  4  1  0
  4  5  1  0
  5  6  1  0
  6  7  2  0
  6  8  1  0
  8  9  1  1
  8 10  1  0
 10 11  1  0
 11 12  1  1
 11 13  1  0
 13 14  1  1
 14 15  1  0
 15 16  1  1
 15 17  1  0
 17 18  1  0
 18 19  1  0
 19 20  1  0
 20 21  1  0
 21 22  1  1
 21 23  1  0
 23 24  1  0
 24 25  1  0
 25 26  2  0
 25 27  1  0
 27 28  1  0
 28 29  1  6
 28 30  1  0
 30 31  2  0
 30 32  1  0
 32 13  1  0
M  END
$$$$
