
     RDKit          3D

 32 32  0  0  0  0  0  0  0  0999 V2000
  -11.8171  -38.9838  -16.0293 C   0  0  0  0  0  0  0  0  0  0  0  0
  -13.0073  -39.6953  -15.3772 C   0  0  0  0  0  0  0  0  0  0  0  0
  -12.9359  -39.7804  -13.9133 C   0  0  0  0  0  0  0  0  0  0  0  0
  -14.0026  -40.4220  -13.1384 C   0  0  0  0  0  0  0  0  0  0  0  0
  -14.5842  -39.6849  -12.0748 N   0  0  0  0  0  0  0  0  0  0  0  0
  -14.0186  -39.2314  -10.8752 C   0  0  0  0  0  0  0  0  0  0  0  0
  -12.8966  -39.6263  -10.5085 O   0  0  0  0  0  0  0  0  0  0  0  0
  -14.7632  -38.2556  -10.0075 C   0  0  2  0  0  0  0  0  0  0  0  0
  -13.8393  -37.2389   -9.4042 C   0  0  0  0  0  0  0  0  0  0  0  0
  -15.4063  -39.0596   -8.8828 C   0  0  0  0  0  0  0  0  0  0  0  0
  -16.6903  -38.4368   -8.4672 C   0  0  2  0  0  0  0  0  0  0  0  0
  -16.4719  -37.4787   -7.4405 O   0  0  0  0  0  0  0  0  0  0  0  0
  -17.6675  -39.4968   -7.9351 C   0  0  2  0  0  0  0  0  0  0  0  0
  -17.9030  -39.3085   -6.4829 C   0  0  0  0  0  0  0  0  0  0  0  0
  -19.2151  -38.6551   -6.1413 C   0  0  2  0  0  0  0  0  0  0  0  0
  -19.1584  -38.0776   -4.7425 C   0  0  0  0  0  0  0  0  0  0  0  0
  -20.3752  -39.6214   -6.2361 C   0  0  0  0  0  0  0  0  0  0  0  0
  -21.6872  -38.9406   -6.0473 C   0  0  0  0  0  0  0  0  0  0  0  0
  -22.8050  -39.9923   -6.0054 C   0  0  0  0  0  0  0  0  0  0  0  0
  -22.4323  -41.1639   -6.8998 C   0  0  0  0  0  0  0  0  0  0  0  0
  -23.4740  -42.2178   -6.9906 C   0  0  2  0  0  0  0  0  0  0  0  0
  -24.3712  -42.0724   -5.7578 C   0  0  0  0  0  0  0  0  0  0  0  0
  -22.9641  -43.6135   -7.0060 C   0  0  0  0  0  0  0  0  0  0  0  0
  -21.4674  -43.7491   -7.1561 C   0  0  0  0  0  0  0  0  0  0  0  0
  -20.9381  -43.1294   -8.3722 C   0  0  0  0  0  0  0  0  0  0  0  0
  -21.7011  -42.9399   -9.3870 O   0  0  0  0  0  0  0  0  0  0  0  0
  -19.5818  -42.7323   -8.4443 N   0  0  0  0  0  0  0  0  0  0  0  0
  -18.6771  -42.6996   -7.3048 C   0  0  1  0  0  0  0  0  0  0  0  0
  -18.4397  -44.1517   -6.9259 C   0  0  0  0  0  0  0  0  0  0  0  0
  -17.3967  -42.0407   -7.6456 C   0  0  0  0  0  0  0  0  0  0  0  0
  -16.3705  -42.7266   -7.2749 O   0  0  0  0  0  0  0  0  0  0  0  0
  -17.1869  -40.8181   -8.2930 N   0  0  0  0  0  0  0  0  0  0  0  0
  1  2  1  0
  2  3  1  0
  3  4  1  0
  4  5  1  0
  5  6  1  0
  6  7  2  0
  6  8  1  0
  8  9  1  1
  8 10  1  0
 10 11  1  0
 11 12  1  1
 11 13  1  0
 13 14  1  1
 14 15  1  0
 15 16  1  1
 15 17  1  0
 17 18  1  0
 18 19  1  0
 19 20  1  0
 20 21  1  0
 21 22  1  1
 21 23  1  0
 23 24  1  0
 24 25  1  0
 25 26  2  0
 25 27  1  0
 27 28  1  0
 28 29  1  6
 28 30  1  0
 30 31  2  0
 30 32  1  0
 32 13  1  0
M  END
$$$$
