
     RDKit          3D

 32 32  0  0  0  0  0  0  0  0999 V2000
  -11.9204  -35.9511  -13.8509 C   0  0  0  0  0  0  0  0  0  0  0  0
  -12.7345  -36.0109  -12.5541 C   0  0  0  0  0  0  0  0  0  0  0  0
  -13.8469  -36.9686  -12.5793 C   0  0  0  0  0  0  0  0  0  0  0  0
  -13.6136  -38.4058  -12.4069 C   0  0  0  0  0  0  0  0  0  0  0  0
  -13.2633  -38.8699  -11.1127 N   0  0  0  0  0  0  0  0  0  0  0  0
  -14.0358  -39.5395  -10.1538 C   0  0  0  0  0  0  0  0  0  0  0  0
  -14.8461  -40.4226  -10.4894 O   0  0  0  0  0  0  0  0  0  0  0  0
  -13.8968  -39.1989   -8.6963 C   0  0  2  0  0  0  0  0  0  0  0  0
  -12.5317  -39.5440   -8.1780 C   0  0  0  0  0  0  0  0  0  0  0  0
  -14.9297  -40.0303   -7.9437 C   0  0  0  0  0  0  0  0  0  0  0  0
  -16.1417  -39.2187   -7.6575 C   0  0  2  0  0  0  0  0  0  0  0  0
  -15.9807  -38.4891   -6.4486 O   0  0  0  0  0  0  0  0  0  0  0  0
  -17.3818  -40.1154   -7.5160 C   0  0  2  0  0  0  0  0  0  0  0  0
  -18.0229  -39.9158   -6.1935 C   0  0  0  0  0  0  0  0  0  0  0  0
  -19.2637  -39.0644   -6.2217 C   0  0  2  0  0  0  0  0  0  0  0  0
  -19.5558  -38.5272   -4.8363 C   0  0  0  0  0  0  0  0  0  0  0  0
  -20.4682  -39.8284   -6.7255 C   0  0  0  0  0  0  0  0  0  0  0  0
  -21.6577  -38.9474   -6.8973 C   0  0  0  0  0  0  0  0  0  0  0  0
  -22.8774  -39.8048   -7.2638 C   0  0  0  0  0  0  0  0  0  0  0  0
  -22.4259  -41.0062   -8.0789 C   0  0  0  0  0  0  0  0  0  0  0  0
  -23.5335  -41.8758   -8.5489 C   0  0  2  0  0  0  0  0  0  0  0  0
  -24.7351  -41.6078   -7.6377 C   0  0  0  0  0  0  0  0  0  0  0  0
  -23.2576  -43.3352   -8.5013 C   0  0  0  0  0  0  0  0  0  0  0  0
  -21.8253  -43.7088   -8.2012 C   0  0  0  0  0  0  0  0  0  0  0  0
  -20.8606  -43.1627   -9.1574 C   0  0  0  0  0  0  0  0  0  0  0  0
  -21.2363  -42.8352  -10.3405 O   0  0  0  0  0  0  0  0  0  0  0  0
  -19.5051  -42.9892   -8.7906 N   0  0  0  0  0  0  0  0  0  0  0  0
  -19.0017  -43.1225   -7.4316 C   0  0  1  0  0  0  0  0  0  0  0  0
  -19.1118  -44.6001   -7.0949 C   0  0  0  0  0  0  0  0  0  0  0  0
  -17.5955  -42.6740   -7.3260 C   0  0  0  0  0  0  0  0  0  0  0  0
  -16.8478  -43.5231   -6.7087 O   0  0  0  0  0  0  0  0  0  0  0  0
  -17.0166  -41.4908   -7.7981 N   0  0  0  0  0  0  0  0  0  0  0  0
  1  2  1  0
  2  3  1  0
  3  4  1  0
  4  5  1  0
  5  6  1  0
  6  7  2  0
  6  8  1  0
  8  9  1  1
  8 10  1  0
 10 11  1  0
 11 12  1  1
 11 13  1  0
 13 14  1  1
 14 15  1  0
 15 16  1  1
 15 17  1  0
 17 18  1  0
 18 19  1  0
 19 20  1  0
 20 21  1  0
 21 22  1  1
 21 23  1  0
 23 24  1  0
 24 25  1  0
 25 26  2  0
 25 27  1  0
 27 28  1  0
 28 29  1  6
 28 30  1  0
 30 31  2  0
 30 32  1  0
 32 13  1  0
M  END
$$$$
