
     RDKit          3D

 32 32  0  0  0  0  0  0  0  0999 V2000
  -14.5740  -34.4737  -13.5745 C   0  0  0  0  0  0  0  0  0  0  0  0
  -14.4743  -36.0010  -13.5009 C   0  0  0  0  0  0  0  0  0  0  0  0
  -13.3529  -36.4980  -12.6944 C   0  0  0  0  0  0  0  0  0  0  0  0
  -13.1413  -37.9350  -12.4944 C   0  0  0  0  0  0  0  0  0  0  0  0
  -13.2232  -38.4391  -11.1708 N   0  0  0  0  0  0  0  0  0  0  0  0
  -14.1374  -39.3358  -10.6008 C   0  0  0  0  0  0  0  0  0  0  0  0
  -14.9711  -39.9328  -11.3064 O   0  0  0  0  0  0  0  0  0  0  0  0
  -14.1252  -39.5914   -9.1196 C   0  0  2  0  0  0  0  0  0  0  0  0
  -12.8378  -40.2247   -8.6808 C   0  0  0  0  0  0  0  0  0  0  0  0
  -15.2694  -40.5549   -8.8240 C   0  0  0  0  0  0  0  0  0  0  0  0
  -16.5795  -39.8727   -8.9902 C   0  0  2  0  0  0  0  0  0  0  0  0
  -16.4941  -38.5175   -8.5709 O   0  0  0  0  0  0  0  0  0  0  0  0
  -17.6688  -40.5658   -8.1566 C   0  0  2  0  0  0  0  0  0  0  0  0
  -17.7685  -39.9496   -6.8111 C   0  0  0  0  0  0  0  0  0  0  0  0
  -18.9359  -39.0162   -6.6353 C   0  0  2  0  0  0  0  0  0  0  0  0
  -18.6912  -38.0955   -5.4581 C   0  0  0  0  0  0  0  0  0  0  0  0
  -20.2354  -39.7615   -6.4248 C   0  0  0  0  0  0  0  0  0  0  0  0
  -21.4094  -38.8440   -6.4033 C   0  0  0  0  0  0  0  0  0  0  0  0
  -22.6707  -39.6399   -6.0387 C   0  0  0  0  0  0  0  0  0  0  0  0
  -22.5485  -41.0572   -6.5752 C   0  0  0  0  0  0  0  0  0  0  0  0
  -23.7446  -41.9042   -6.3391 C   0  0  2  0  0  0  0  0  0  0  0  0
  -24.5186  -41.2774   -5.1755 C   0  0  0  0  0  0  0  0  0  0  0  0
  -23.4594  -43.3159   -5.9727 C   0  0  0  0  0  0  0  0  0  0  0  0
  -22.0162  -43.7377   -6.1156 C   0  0  0  0  0  0  0  0  0  0  0  0
  -21.4851  -43.5736   -7.4698 C   0  0  0  0  0  0  0  0  0  0  0  0
  -22.2797  -43.5438   -8.4777 O   0  0  0  0  0  0  0  0  0  0  0  0
  -20.0923  -43.4460   -7.6847 N   0  0  0  0  0  0  0  0  0  0  0  0
  -19.1148  -43.2552   -6.6235 C   0  0  1  0  0  0  0  0  0  0  0  0
  -19.0789  -44.5662   -5.8563 C   0  0  0  0  0  0  0  0  0  0  0  0
  -17.7753  -42.9405   -7.1680 C   0  0  0  0  0  0  0  0  0  0  0  0
  -16.8440  -43.6614   -6.6444 O   0  0  0  0  0  0  0  0  0  0  0  0
  -17.4252  -41.9959   -8.1390 N   0  0  0  0  0  0  0  0  0  0  0  0
  1  2  1  0
  2  3  1  0
  3  4  1  0
  4  5  1  0
  5  6  1  0
  6  7  2  0
  6  8  1  0
  8  9  1  6
  8 10  1  0
 10 11  1  0
 11 12  1  1
 11 13  1  0
 13 14  1  1
 14 15  1  0
 15 16  1  1
 15 17  1  0
 17 18  1  0
 18 19  1  0
 19 20  1  0
 20 21  1  0
 21 22  1  1
 21 23  1  0
 23 24  1  0
 24 25  1  0
 25 26  2  0
 25 27  1  0
 27 28  1  0
 28 29  1  6
 28 30  1  0
 30 31  2  0
 30 32  1  0
 32 13  1  0
M  END
$$$$
