
     RDKit          3D

 32 32  0  0  0  0  0  0  0  0999 V2000
  -10.3535  -40.1081  -13.7465 C   0  0  0  0  0  0  0  0  0  0  0  0
  -11.3592  -39.0685  -13.2410 C   0  0  0  0  0  0  0  0  0  0  0  0
  -12.7661  -39.4514  -13.4124 C   0  0  0  0  0  0  0  0  0  0  0  0
  -13.5944  -39.8290  -12.2630 C   0  0  0  0  0  0  0  0  0  0  0  0
  -14.1400  -38.7875  -11.4688 N   0  0  0  0  0  0  0  0  0  0  0  0
  -14.8374  -38.8487  -10.2545 C   0  0  0  0  0  0  0  0  0  0  0  0
  -14.7639  -39.8549   -9.5255 O   0  0  0  0  0  0  0  0  0  0  0  0
  -15.6904  -37.6929   -9.8114 C   0  0  2  0  0  0  0  0  0  0  0  0
  -15.0170  -36.8921   -8.7361 C   0  0  0  0  0  0  0  0  0  0  0  0
  -16.9796  -38.2806   -9.2481 C   0  0  0  0  0  0  0  0  0  0  0  0
  -17.0600  -39.7353   -9.5428 C   0  0  2  0  0  0  0  0  0  0  0  0
  -17.5632  -39.9525  -10.8541 O   0  0  0  0  0  0  0  0  0  0  0  0
  -17.9902  -40.4463   -8.5474 C   0  0  2  0  0  0  0  0  0  0  0  0
  -18.0733  -39.6871   -7.2759 C   0  0  0  0  0  0  0  0  0  0  0  0
  -19.3355  -38.8848   -7.1075 C   0  0  2  0  0  0  0  0  0  0  0  0
  -19.1288  -37.8050   -6.0661 C   0  0  0  0  0  0  0  0  0  0  0  0
  -20.5107  -39.7483   -6.7052 C   0  0  0  0  0  0  0  0  0  0  0  0
  -21.7882  -38.9814   -6.6873 C   0  0  0  0  0  0  0  0  0  0  0  0
  -22.9083  -39.8713   -6.1300 C   0  0  0  0  0  0  0  0  0  0  0  0
  -22.6434  -41.3187   -6.5125 C   0  0  0  0  0  0  0  0  0  0  0  0
  -23.7015  -42.2670   -6.0822 C   0  0  2  0  0  0  0  0  0  0  0  0
  -24.4658  -41.5997   -4.9349 C   0  0  0  0  0  0  0  0  0  0  0  0
  -23.2126  -43.5794   -5.5853 C   0  0  0  0  0  0  0  0  0  0  0  0
  -21.7409  -43.8406   -5.8019 C   0  0  0  0  0  0  0  0  0  0  0  0
  -21.3317  -43.7808   -7.2062 C   0  0  0  0  0  0  0  0  0  0  0  0
  -22.1924  -43.9688   -8.1399 O   0  0  0  0  0  0  0  0  0  0  0  0
  -19.9853  -43.5155   -7.5514 N   0  0  0  0  0  0  0  0  0  0  0  0
  -18.9683  -43.0817   -6.6051 C   0  0  1  0  0  0  0  0  0  0  0  0
  -18.7107  -44.2758   -5.7015 C   0  0  0  0  0  0  0  0  0  0  0  0
  -17.7217  -42.6786   -7.2931 C   0  0  0  0  0  0  0  0  0  0  0  0
  -16.6712  -43.2142   -6.7729 O   0  0  0  0  0  0  0  0  0  0  0  0
  -17.5647  -41.8244   -8.3901 N   0  0  0  0  0  0  0  0  0  0  0  0
  1  2  1  0
  2  3  1  0
  3  4  1  0
  4  5  1  0
  5  6  1  0
  6  7  2  0
  6  8  1  0
  8  9  1  1
  8 10  1  0
 10 11  1  0
 11 12  1  6
 11 13  1  0
 13 14  1  1
 14 15  1  0
 15 16  1  1
 15 17  1  0
 17 18  1  0
 18 19  1  0
 19 20  1  0
 20 21  1  0
 21 22  1  1
 21 23  1  0
 23 24  1  0
 24 25  1  0
 25 26  2  0
 25 27  1  0
 27 28  1  0
 28 29  1  1
 28 30  1  0
 30 31  2  0
 30 32  1  0
 32 13  1  0
M  END
$$$$
