
     RDKit          3D

 32 32  0  0  0  0  0  0  0  0999 V2000
  -11.3270  -36.5732  -15.8699 C   0  0  0  0  0  0  0  0  0  0  0  0
  -11.8765  -37.8316  -15.1899 C   0  0  0  0  0  0  0  0  0  0  0  0
  -12.4341  -37.6039  -13.8511 C   0  0  0  0  0  0  0  0  0  0  0  0
  -13.3329  -38.5806  -13.2282 C   0  0  0  0  0  0  0  0  0  0  0  0
  -13.8719  -38.2667  -11.9539 N   0  0  0  0  0  0  0  0  0  0  0  0
  -14.3930  -39.1083  -10.9615 C   0  0  0  0  0  0  0  0  0  0  0  0
  -14.4289  -40.3418  -11.1242 O   0  0  0  0  0  0  0  0  0  0  0  0
  -14.9202  -38.5304   -9.6779 C   0  0  2  0  0  0  0  0  0  0  0  0
  -13.8207  -38.3085   -8.6815 C   0  0  0  0  0  0  0  0  0  0  0  0
  -15.9031  -39.5445   -9.1030 C   0  0  0  0  0  0  0  0  0  0  0  0
  -17.0206  -38.8505   -8.4108 C   0  0  2  0  0  0  0  0  0  0  0  0
  -16.5194  -37.9347   -7.4466 O   0  0  0  0  0  0  0  0  0  0  0  0
  -17.9295  -39.8582   -7.6895 C   0  0  2  0  0  0  0  0  0  0  0  0
  -18.1074  -39.4767   -6.2673 C   0  0  0  0  0  0  0  0  0  0  0  0
  -19.4283  -38.8266   -5.9544 C   0  0  2  0  0  0  0  0  0  0  0  0
  -19.3326  -38.0575   -4.6533 C   0  0  0  0  0  0  0  0  0  0  0  0
  -20.5515  -39.8353   -5.8570 C   0  0  0  0  0  0  0  0  0  0  0  0
  -21.8802  -39.1795   -5.6991 C   0  0  0  0  0  0  0  0  0  0  0  0
  -22.9516  -40.2521   -5.4567 C   0  0  0  0  0  0  0  0  0  0  0  0
  -22.5722  -41.5240   -6.1982 C   0  0  0  0  0  0  0  0  0  0  0  0
  -23.5735  -42.6148   -6.0906 C   0  0  2  0  0  0  0  0  0  0  0  0
  -24.4200  -42.3288   -4.8467 C   0  0  0  0  0  0  0  0  0  0  0  0
  -23.0089  -43.9809   -5.9385 C   0  0  0  0  0  0  0  0  0  0  0  0
  -21.5161  -44.0855   -6.1427 C   0  0  0  0  0  0  0  0  0  0  0  0
  -21.0670  -43.6245   -7.4575 C   0  0  0  0  0  0  0  0  0  0  0  0
  -21.8815  -43.6047   -8.4496 O   0  0  0  0  0  0  0  0  0  0  0  0
  -19.7324  -43.1958   -7.6512 N   0  0  0  0  0  0  0  0  0  0  0  0
  -18.7799  -42.9736   -6.5735 C   0  0  1  0  0  0  0  0  0  0  0  0
  -18.4674  -44.3496   -6.0100 C   0  0  0  0  0  0  0  0  0  0  0  0
  -17.5436  -42.3259   -7.0653 C   0  0  0  0  0  0  0  0  0  0  0  0
  -16.4750  -42.9182   -6.6550 O   0  0  0  0  0  0  0  0  0  0  0  0
  -17.4123  -41.1995   -7.8850 N   0  0  0  0  0  0  0  0  0  0  0  0
  1  2  1  0
  2  3  1  0
  3  4  1  0
  4  5  1  0
  5  6  1  0
  6  7  2  0
  6  8  1  0
  8  9  1  1
  8 10  1  0
 10 11  1  0
 11 12  1  1
 11 13  1  0
 13 14  1  1
 14 15  1  0
 15 16  1  1
 15 17  1  0
 17 18  1  0
 18 19  1  0
 19 20  1  0
 20 21  1  0
 21 22  1  1
 21 23  1  0
 23 24  1  0
 24 25  1  0
 25 26  2  0
 25 27  1  0
 27 28  1  0
 28 29  1  6
 28 30  1  0
 30 31  2  0
 30 32  1  0
 32 13  1  0
M  END
$$$$
