
     RDKit          3D

 32 32  0  0  0  0  0  0  0  0999 V2000
  -10.4444  -35.4422  -12.5750 C   0  0  0  0  0  0  0  0  0  0  0  0
  -11.8939  -35.9380  -12.5396 C   0  0  0  0  0  0  0  0  0  0  0  0
  -12.0493  -37.3280  -12.0935 C   0  0  0  0  0  0  0  0  0  0  0  0
  -13.3576  -37.9896  -12.1164 C   0  0  0  0  0  0  0  0  0  0  0  0
  -14.1141  -38.0038  -10.9162 N   0  0  0  0  0  0  0  0  0  0  0  0
  -14.4460  -39.0712  -10.0705 C   0  0  0  0  0  0  0  0  0  0  0  0
  -14.7724  -40.1781  -10.5369 O   0  0  0  0  0  0  0  0  0  0  0  0
  -14.4129  -38.8942   -8.5781 C   0  0  2  0  0  0  0  0  0  0  0  0
  -13.0779  -39.2736   -8.0082 C   0  0  0  0  0  0  0  0  0  0  0  0
  -15.4741  -39.8213   -7.9957 C   0  0  0  0  0  0  0  0  0  0  0  0
  -16.8358  -39.3226   -8.3221 C   0  0  2  0  0  0  0  0  0  0  0  0
  -17.0412  -38.0304   -7.7671 O   0  0  0  0  0  0  0  0  0  0  0  0
  -17.9138  -40.2633   -7.7611 C   0  0  2  0  0  0  0  0  0  0  0  0
  -18.5010  -39.7038   -6.5193 C   0  0  0  0  0  0  0  0  0  0  0  0
  -19.8570  -39.0752   -6.6963 C   0  0  2  0  0  0  0  0  0  0  0  0
  -20.1479  -38.1363   -5.5443 C   0  0  0  0  0  0  0  0  0  0  0  0
  -20.9573  -40.1092   -6.7881 C   0  0  0  0  0  0  0  0  0  0  0  0
  -22.2755  -39.4960   -7.1149 C   0  0  0  0  0  0  0  0  0  0  0  0
  -23.3686  -40.5718   -7.0455 C   0  0  0  0  0  0  0  0  0  0  0  0
  -22.7861  -41.9137   -7.4597 C   0  0  0  0  0  0  0  0  0  0  0  0
  -23.7727  -43.0224   -7.4951 C   0  0  2  0  0  0  0  0  0  0  0  0
  -24.9468  -42.6100   -6.6022 C   0  0  0  0  0  0  0  0  0  0  0  0
  -23.2744  -44.3305   -6.9964 C   0  0  0  0  0  0  0  0  0  0  0  0
  -21.7870  -44.3972   -6.7430 C   0  0  0  0  0  0  0  0  0  0  0  0
  -20.9737  -44.0965   -7.9225 C   0  0  0  0  0  0  0  0  0  0  0  0
  -21.4623  -44.2440   -9.1005 O   0  0  0  0  0  0  0  0  0  0  0  0
  -19.6419  -43.6405   -7.7796 N   0  0  0  0  0  0  0  0  0  0  0  0
  -19.0469  -43.2359   -6.5146 C   0  0  1  0  0  0  0  0  0  0  0  0
  -18.9100  -44.5099   -5.6980 C   0  0  0  0  0  0  0  0  0  0  0  0
  -17.7222  -42.6070   -6.7130 C   0  0  0  0  0  0  0  0  0  0  0  0
  -16.8191  -43.0928   -5.9323 O   0  0  0  0  0  0  0  0  0  0  0  0
  -17.3592  -41.5952   -7.6088 N   0  0  0  0  0  0  0  0  0  0  0  0
  1  2  1  0
  2  3  1  0
  3  4  1  0
  4  5  1  0
  5  6  1  0
  6  7  2  0
  6  8  1  0
  8  9  1  1
  8 10  1  0
 10 11  1  0
 11 12  1  1
 11 13  1  0
 13 14  1  1
 14 15  1  0
 15 16  1  1
 15 17  1  0
 17 18  1  0
 18 19  1  0
 19 20  1  0
 20 21  1  0
 21 22  1  1
 21 23  1  0
 23 24  1  0
 24 25  1  0
 25 26  2  0
 25 27  1  0
 27 28  1  0
 28 29  1  1
 28 30  1  0
 30 31  2  0
 30 32  1  0
 32 13  1  0
M  END
$$$$
