
     RDKit          3D

 32 32  0  0  0  0  0  0  0  0999 V2000
  -15.2812  -33.9435  -12.2855 C   0  0  0  0  0  0  0  0  0  0  0  0
  -14.3467  -34.6373  -11.2889 C   0  0  0  0  0  0  0  0  0  0  0  0
  -13.6365  -35.8018  -11.8319 C   0  0  0  0  0  0  0  0  0  0  0  0
  -12.7151  -36.5830  -11.0010 C   0  0  0  0  0  0  0  0  0  0  0  0
  -13.2703  -37.3892   -9.9740 N   0  0  0  0  0  0  0  0  0  0  0  0
  -13.9249  -38.6262  -10.0513 C   0  0  0  0  0  0  0  0  0  0  0  0
  -14.6296  -38.9155  -11.0357 O   0  0  0  0  0  0  0  0  0  0  0  0
  -13.7855  -39.6282   -8.9395 C   0  0  2  0  0  0  0  0  0  0  0  0
  -12.7105  -40.6323   -9.2350 C   0  0  0  0  0  0  0  0  0  0  0  0
  -15.1191  -40.3588   -8.8280 C   0  0  0  0  0  0  0  0  0  0  0  0
  -16.0919  -39.5488   -8.0489 C   0  0  2  0  0  0  0  0  0  0  0  0
  -15.5234  -39.1374   -6.8131 O   0  0  0  0  0  0  0  0  0  0  0  0
  -17.3629  -40.3583   -7.7473 C   0  0  2  0  0  0  0  0  0  0  0  0
  -18.0420  -39.8336   -6.5376 C   0  0  0  0  0  0  0  0  0  0  0  0
  -19.2544  -38.9872   -6.8180 C   0  0  2  0  0  0  0  0  0  0  0  0
  -19.5766  -38.1272   -5.6139 C   0  0  0  0  0  0  0  0  0  0  0  0
  -20.4641  -39.8234   -7.1727 C   0  0  0  0  0  0  0  0  0  0  0  0
  -21.6196  -38.9839   -7.5975 C   0  0  0  0  0  0  0  0  0  0  0  0
  -22.8519  -39.8776   -7.7974 C   0  0  0  0  0  0  0  0  0  0  0  0
  -22.4101  -41.2488   -8.2832 C   0  0  0  0  0  0  0  0  0  0  0  0
  -23.5273  -42.1816   -8.5759 C   0  0  2  0  0  0  0  0  0  0  0  0
  -24.7501  -41.6770   -7.8041 C   0  0  0  0  0  0  0  0  0  0  0  0
  -23.2979  -43.5926   -8.1701 C   0  0  0  0  0  0  0  0  0  0  0  0
  -21.8887  -43.9142   -7.7323 C   0  0  0  0  0  0  0  0  0  0  0  0
  -20.8760  -43.6343   -8.7517 C   0  0  0  0  0  0  0  0  0  0  0  0
  -21.2012  -43.5921   -9.9928 O   0  0  0  0  0  0  0  0  0  0  0  0
  -19.5289  -43.4074   -8.3828 N   0  0  0  0  0  0  0  0  0  0  0  0
  -19.0760  -43.2217   -7.0122 C   0  0  1  0  0  0  0  0  0  0  0  0
  -19.2426  -44.5727   -6.3371 C   0  0  0  0  0  0  0  0  0  0  0  0
  -17.6611  -42.7914   -6.9604 C   0  0  0  0  0  0  0  0  0  0  0  0
  -16.9611  -43.4837   -6.1287 O   0  0  0  0  0  0  0  0  0  0  0  0
  -17.0307  -41.7689   -7.6778 N   0  0  0  0  0  0  0  0  0  0  0  0
  1  2  1  0
  2  3  1  0
  3  4  1  0
  4  5  1  0
  5  6  1  0
  6  7  2  0
  6  8  1  0
  8  9  1  6
  8 10  1  0
 10 11  1  0
 11 12  1  1
 11 13  1  0
 13 14  1  1
 14 15  1  0
 15 16  1  1
 15 17  1  0
 17 18  1  0
 18 19  1  0
 19 20  1  0
 20 21  1  0
 21 22  1  1
 21 23  1  0
 23 24  1  0
 24 25  1  0
 25 26  2  0
 25 27  1  0
 27 28  1  0
 28 29  1  1
 28 30  1  0
 30 31  2  0
 30 32  1  0
 32 13  1  0
M  END
$$$$
