
     RDKit          3D

 32 32  0  0  0  0  0  0  0  0999 V2000
  -14.8459  -34.8752  -13.8771 C   0  0  0  0  0  0  0  0  0  0  0  0
  -13.9902  -36.1333  -14.0578 C   0  0  0  0  0  0  0  0  0  0  0  0
  -14.0251  -37.0599  -12.9195 C   0  0  0  0  0  0  0  0  0  0  0  0
  -13.3792  -38.3742  -12.9920 C   0  0  0  0  0  0  0  0  0  0  0  0
  -13.4359  -39.2047  -11.8431 N   0  0  0  0  0  0  0  0  0  0  0  0
  -14.5421  -39.7453  -11.1732 C   0  0  0  0  0  0  0  0  0  0  0  0
  -15.2960  -40.5587  -11.7381 O   0  0  0  0  0  0  0  0  0  0  0  0
  -14.8369  -39.3480   -9.7538 C   0  0  2  0  0  0  0  0  0  0  0  0
  -13.9756  -40.0992   -8.7817 C   0  0  0  0  0  0  0  0  0  0  0  0
  -16.2963  -39.6995   -9.4864 C   0  0  0  0  0  0  0  0  0  0  0  0
  -16.7173  -39.1927   -8.1540 C   0  0  2  0  0  0  0  0  0  0  0  0
  -15.6128  -39.1586   -7.2604 O   0  0  0  0  0  0  0  0  0  0  0  0
  -17.8025  -40.0927   -7.5424 C   0  0  2  0  0  0  0  0  0  0  0  0
  -18.1634  -39.6253   -6.1818 C   0  0  0  0  0  0  0  0  0  0  0  0
  -19.4604  -38.8658   -6.1045 C   0  0  2  0  0  0  0  0  0  0  0  0
  -19.5025  -38.0385   -4.8367 C   0  0  0  0  0  0  0  0  0  0  0  0
  -20.6621  -39.7839   -6.1420 C   0  0  0  0  0  0  0  0  0  0  0  0
  -21.9429  -39.0262   -6.2192 C   0  0  0  0  0  0  0  0  0  0  0  0
  -23.1207  -40.0042   -6.1030 C   0  0  0  0  0  0  0  0  0  0  0  0
  -22.7356  -41.3374   -6.7242 C   0  0  0  0  0  0  0  0  0  0  0  0
  -23.8253  -42.3456   -6.7294 C   0  0  2  0  0  0  0  0  0  0  0  0
  -24.8253  -41.9343   -5.6447 C   0  0  0  0  0  0  0  0  0  0  0  0
  -23.4009  -43.7392   -6.4360 C   0  0  0  0  0  0  0  0  0  0  0  0
  -21.9076  -43.9622   -6.4014 C   0  0  0  0  0  0  0  0  0  0  0  0
  -21.2287  -43.6044   -7.6480 C   0  0  0  0  0  0  0  0  0  0  0  0
  -21.8790  -43.5776   -8.7546 O   0  0  0  0  0  0  0  0  0  0  0  0
  -19.8504  -43.2843   -7.6492 N   0  0  0  0  0  0  0  0  0  0  0  0
  -19.0579  -43.0755   -6.4465 C   0  0  1  0  0  0  0  0  0  0  0  0
  -18.9452  -44.4391   -5.7859 C   0  0  0  0  0  0  0  0  0  0  0  0
  -17.7137  -42.5458   -6.7661 C   0  0  0  0  0  0  0  0  0  0  0  0
  -16.7704  -43.1916   -6.1710 O   0  0  0  0  0  0  0  0  0  0  0  0
  -17.3702  -41.4763   -7.6005 N   0  0  0  0  0  0  0  0  0  0  0  0
  1  2  1  0
  2  3  1  0
  3  4  1  0
  4  5  1  0
  5  6  1  0
  6  7  2  0
  6  8  1  0
  8  9  1  1
  8 10  1  0
 10 11  1  0
 11 12  1  1
 11 13  1  0
 13 14  1  1
 14 15  1  0
 15 16  1  1
 15 17  1  0
 17 18  1  0
 18 19  1  0
 19 20  1  0
 20 21  1  0
 21 22  1  1
 21 23  1  0
 23 24  1  0
 24 25  1  0
 25 26  2  0
 25 27  1  0
 27 28  1  0
 28 29  1  6
 28 30  1  0
 30 31  2  0
 30 32  1  0
 32 13  1  0
M  END
$$$$
