
     RDKit          3D

 32 32  0  0  0  0  0  0  0  0999 V2000
  -12.4848  -35.2571  -14.5037 C   0  0  0  0  0  0  0  0  0  0  0  0
  -13.7947  -35.9814  -14.1758 C   0  0  0  0  0  0  0  0  0  0  0  0
  -13.8520  -36.5501  -12.8235 C   0  0  0  0  0  0  0  0  0  0  0  0
  -13.0612  -37.7312  -12.4639 C   0  0  0  0  0  0  0  0  0  0  0  0
  -13.1922  -38.2404  -11.1461 N   0  0  0  0  0  0  0  0  0  0  0  0
  -13.7898  -39.4235  -10.6904 C   0  0  0  0  0  0  0  0  0  0  0  0
  -14.2083  -40.2780  -11.4928 O   0  0  0  0  0  0  0  0  0  0  0  0
  -13.9357  -39.6799   -9.2164 C   0  0  2  0  0  0  0  0  0  0  0  0
  -12.8427  -40.5693   -8.7014 C   0  0  0  0  0  0  0  0  0  0  0  0
  -15.2734  -40.3838   -9.0166 C   0  0  0  0  0  0  0  0  0  0  0  0
  -16.2860  -39.4345   -8.4849 C   0  0  2  0  0  0  0  0  0  0  0  0
  -15.7182  -38.6121   -7.4744 O   0  0  0  0  0  0  0  0  0  0  0  0
  -17.4790  -40.1885   -7.8766 C   0  0  2  0  0  0  0  0  0  0  0  0
  -17.8843  -39.5738   -6.5890 C   0  0  0  0  0  0  0  0  0  0  0  0
  -19.1155  -38.7118   -6.6673 C   0  0  2  0  0  0  0  0  0  0  0  0
  -19.1679  -37.7729   -5.4802 C   0  0  0  0  0  0  0  0  0  0  0  0
  -20.3850  -39.5333   -6.7107 C   0  0  0  0  0  0  0  0  0  0  0  0
  -21.5906  -38.6883   -6.9413 C   0  0  0  0  0  0  0  0  0  0  0  0
  -22.8510  -39.5573   -6.8252 C   0  0  0  0  0  0  0  0  0  0  0  0
  -22.5405  -40.9669   -7.3027 C   0  0  0  0  0  0  0  0  0  0  0  0
  -23.7082  -41.8837   -7.2986 C   0  0  2  0  0  0  0  0  0  0  0  0
  -24.7365  -41.2997   -6.3252 C   0  0  0  0  0  0  0  0  0  0  0  0
  -23.4211  -43.2739   -6.8592 C   0  0  0  0  0  0  0  0  0  0  0  0
  -21.9568  -43.6084   -6.7014 C   0  0  0  0  0  0  0  0  0  0  0  0
  -21.1734  -43.4183   -7.9234 C   0  0  0  0  0  0  0  0  0  0  0  0
  -21.7484  -43.4409   -9.0710 O   0  0  0  0  0  0  0  0  0  0  0  0
  -19.7758  -43.2078   -7.8553 N   0  0  0  0  0  0  0  0  0  0  0  0
  -19.0458  -42.9537   -6.6223 C   0  0  1  0  0  0  0  0  0  0  0  0
  -19.0892  -44.2569   -5.8422 C   0  0  0  0  0  0  0  0  0  0  0  0
  -17.6445  -42.5611   -6.8909 C   0  0  0  0  0  0  0  0  0  0  0  0
  -16.7978  -43.2221   -6.1786 O   0  0  0  0  0  0  0  0  0  0  0  0
  -17.1611  -41.6012   -7.7868 N   0  0  0  0  0  0  0  0  0  0  0  0
  1  2  1  0
  2  3  1  0
  3  4  1  0
  4  5  1  0
  5  6  1  0
  6  7  2  0
  6  8  1  0
  8  9  1  6
  8 10  1  0
 10 11  1  0
 11 12  1  1
 11 13  1  0
 13 14  1  1
 14 15  1  0
 15 16  1  1
 15 17  1  0
 17 18  1  0
 18 19  1  0
 19 20  1  0
 20 21  1  0
 21 22  1  1
 21 23  1  0
 23 24  1  0
 24 25  1  0
 25 26  2  0
 25 27  1  0
 27 28  1  0
 28 29  1  1
 28 30  1  0
 30 31  2  0
 30 32  1  0
 32 13  1  0
M  END
$$$$
