
     RDKit          3D

 32 32  0  0  0  0  0  0  0  0999 V2000
  -13.8935  -41.5518  -16.5913 C   0  0  0  0  0  0  0  0  0  0  0  0
  -13.9898  -41.9446  -15.1134 C   0  0  0  0  0  0  0  0  0  0  0  0
  -13.9957  -40.8093  -14.1826 C   0  0  0  0  0  0  0  0  0  0  0  0
  -13.0361  -40.7307  -13.0768 C   0  0  0  0  0  0  0  0  0  0  0  0
  -13.4659  -40.1245  -11.8682 N   0  0  0  0  0  0  0  0  0  0  0  0
  -14.2448  -38.9778  -11.6602 C   0  0  0  0  0  0  0  0  0  0  0  0
  -15.0790  -38.6099  -12.5076 O   0  0  0  0  0  0  0  0  0  0  0  0
  -14.0832  -38.1697  -10.4031 C   0  0  2  0  0  0  0  0  0  0  0  0
  -12.6416  -38.0567  -10.0028 C   0  0  0  0  0  0  0  0  0  0  0  0
  -14.8402  -38.9031   -9.3013 C   0  0  0  0  0  0  0  0  0  0  0  0
  -16.2498  -38.4356   -9.2393 C   0  0  2  0  0  0  0  0  0  0  0  0
  -16.3488  -37.2475   -8.4657 O   0  0  0  0  0  0  0  0  0  0  0  0
  -17.1539  -39.5016   -8.6006 C   0  0  2  0  0  0  0  0  0  0  0  0
  -17.2951  -39.2623   -7.1436 C   0  0  0  0  0  0  0  0  0  0  0  0
  -18.6008  -38.6343   -6.7363 C   0  0  2  0  0  0  0  0  0  0  0  0
  -18.4668  -37.9999   -5.3678 C   0  0  0  0  0  0  0  0  0  0  0  0
  -19.7333  -39.6370   -6.7133 C   0  0  0  0  0  0  0  0  0  0  0  0
  -21.0503  -38.9878   -6.4594 C   0  0  0  0  0  0  0  0  0  0  0  0
  -22.1285  -40.0691   -6.2998 C   0  0  0  0  0  0  0  0  0  0  0  0
  -21.7809  -41.2642   -7.1730 C   0  0  0  0  0  0  0  0  0  0  0  0
  -22.7923  -42.3508   -7.1509 C   0  0  2  0  0  0  0  0  0  0  0  0
  -23.6070  -42.1824   -5.8649 C   0  0  0  0  0  0  0  0  0  0  0  0
  -22.2404  -43.7305   -7.1489 C   0  0  0  0  0  0  0  0  0  0  0  0
  -20.7540  -43.8283   -7.3979 C   0  0  0  0  0  0  0  0  0  0  0  0
  -20.3293  -43.2425   -8.6705 C   0  0  0  0  0  0  0  0  0  0  0  0
  -21.1658  -43.1161   -9.6361 O   0  0  0  0  0  0  0  0  0  0  0  0
  -18.9946  -42.8093   -8.8521 N   0  0  0  0  0  0  0  0  0  0  0  0
  -18.0154  -42.7047   -7.7805 C   0  0  1  0  0  0  0  0  0  0  0  0
  -17.7064  -44.1330   -7.3644 C   0  0  0  0  0  0  0  0  0  0  0  0
  -16.7830  -42.0228   -8.2346 C   0  0  0  0  0  0  0  0  0  0  0  0
  -15.7124  -42.6632   -7.9107 O   0  0  0  0  0  0  0  0  0  0  0  0
  -16.6571  -40.8215   -8.9408 N   0  0  0  0  0  0  0  0  0  0  0  0
  1  2  1  0
  2  3  1  0
  3  4  1  0
  4  5  1  0
  5  6  1  0
  6  7  2  0
  6  8  1  0
  8  9  1  1
  8 10  1  0
 10 11  1  0
 11 12  1  1
 11 13  1  0
 13 14  1  1
 14 15  1  0
 15 16  1  1
 15 17  1  0
 17 18  1  0
 18 19  1  0
 19 20  1  0
 20 21  1  0
 21 22  1  1
 21 23  1  0
 23 24  1  0
 24 25  1  0
 25 26  2  0
 25 27  1  0
 27 28  1  0
 28 29  1  6
 28 30  1  0
 30 31  2  0
 30 32  1  0
 32 13  1  0
M  END
$$$$
