
     RDKit          3D

 32 32  0  0  0  0  0  0  0  0999 V2000
  -12.8529  -34.7948  -13.5265 C   0  0  0  0  0  0  0  0  0  0  0  0
  -12.6613  -36.0003  -12.6003 C   0  0  0  0  0  0  0  0  0  0  0  0
  -12.8164  -37.3030  -13.2592 C   0  0  0  0  0  0  0  0  0  0  0  0
  -12.5584  -38.5530  -12.5376 C   0  0  0  0  0  0  0  0  0  0  0  0
  -12.9910  -38.6411  -11.1892 N   0  0  0  0  0  0  0  0  0  0  0  0
  -14.1525  -39.2099  -10.6488 C   0  0  0  0  0  0  0  0  0  0  0  0
  -15.0546  -39.6444  -11.3882 O   0  0  0  0  0  0  0  0  0  0  0  0
  -14.3277  -39.3039   -9.1588 C   0  0  2  0  0  0  0  0  0  0  0  0
  -13.1137  -39.8869   -8.4974 C   0  0  0  0  0  0  0  0  0  0  0  0
  -15.5131  -40.2292   -8.9069 C   0  0  0  0  0  0  0  0  0  0  0  0
  -16.7404  -39.4378   -8.6293 C   0  0  2  0  0  0  0  0  0  0  0  0
  -16.4302  -38.2921   -7.8476 O   0  0  0  0  0  0  0  0  0  0  0  0
  -17.7731  -40.2779   -7.8616 C   0  0  2  0  0  0  0  0  0  0  0  0
  -17.9943  -39.7220   -6.5044 C   0  0  0  0  0  0  0  0  0  0  0  0
  -19.2675  -38.9344   -6.3507 C   0  0  2  0  0  0  0  0  0  0  0  0
  -19.1756  -38.0311   -5.1387 C   0  0  0  0  0  0  0  0  0  0  0  0
  -20.4793  -39.8298   -6.2156 C   0  0  0  0  0  0  0  0  0  0  0  0
  -21.7514  -39.0537   -6.2168 C   0  0  0  0  0  0  0  0  0  0  0  0
  -22.9253  -40.0000   -5.9275 C   0  0  0  0  0  0  0  0  0  0  0  0
  -22.6199  -41.3756   -6.4985 C   0  0  0  0  0  0  0  0  0  0  0  0
  -23.7183  -42.3611   -6.3364 C   0  0  2  0  0  0  0  0  0  0  0  0
  -24.6031  -41.8656   -5.1887 C   0  0  0  0  0  0  0  0  0  0  0  0
  -23.2861  -43.7422   -5.9989 C   0  0  0  0  0  0  0  0  0  0  0  0
  -21.7995  -43.9914   -6.0937 C   0  0  0  0  0  0  0  0  0  0  0  0
  -21.2399  -43.7231   -7.4195 C   0  0  0  0  0  0  0  0  0  0  0  0
  -21.9938  -43.7511   -8.4582 O   0  0  0  0  0  0  0  0  0  0  0  0
  -19.8640  -43.4302   -7.5727 N   0  0  0  0  0  0  0  0  0  0  0  0
  -18.9561  -43.1641   -6.4669 C   0  0  1  0  0  0  0  0  0  0  0  0
  -18.7980  -44.4870   -5.7364 C   0  0  0  0  0  0  0  0  0  0  0  0
  -17.6421  -42.6807   -6.9462 C   0  0  0  0  0  0  0  0  0  0  0  0
  -16.6543  -43.3072   -6.4051 O   0  0  0  0  0  0  0  0  0  0  0  0
  -17.3669  -41.6707   -7.8746 N   0  0  0  0  0  0  0  0  0  0  0  0
  1  2  1  0
  2  3  1  0
  3  4  1  0
  4  5  1  0
  5  6  1  0
  6  7  2  0
  6  8  1  0
  8  9  1  1
  8 10  1  0
 10 11  1  0
 11 12  1  1
 11 13  1  0
 13 14  1  1
 14 15  1  0
 15 16  1  1
 15 17  1  0
 17 18  1  0
 18 19  1  0
 19 20  1  0
 20 21  1  0
 21 22  1  1
 21 23  1  0
 23 24  1  0
 24 25  1  0
 25 26  2  0
 25 27  1  0
 27 28  1  0
 28 29  1  6
 28 30  1  0
 30 31  2  0
 30 32  1  0
 32 13  1  0
M  END
$$$$
