
     RDKit          3D

 32 32  0  0  0  0  0  0  0  0999 V2000
  -10.6877  -35.3041  -11.2716 C   0  0  0  0  0  0  0  0  0  0  0  0
  -12.1952  -35.5529  -11.3875 C   0  0  0  0  0  0  0  0  0  0  0  0
  -12.7261  -36.5243  -10.4232 C   0  0  0  0  0  0  0  0  0  0  0  0
  -12.6403  -37.9662  -10.6748 C   0  0  0  0  0  0  0  0  0  0  0  0
  -13.4551  -38.5094  -11.7015 N   0  0  0  0  0  0  0  0  0  0  0  0
  -14.8300  -38.7818  -11.7142 C   0  0  0  0  0  0  0  0  0  0  0  0
  -15.6563  -37.8864  -11.9686 O   0  0  0  0  0  0  0  0  0  0  0  0
  -15.3307  -40.1680  -11.4186 C   0  0  2  0  0  0  0  0  0  0  0  0
  -15.1193  -41.0898  -12.5834 C   0  0  0  0  0  0  0  0  0  0  0  0
  -16.8275  -40.0537  -11.1513 C   0  0  0  0  0  0  0  0  0  0  0  0
  -17.3998  -41.3854  -10.8217 C   0  0  2  0  0  0  0  0  0  0  0  0
  -18.3362  -41.7861  -11.8127 O   0  0  0  0  0  0  0  0  0  0  0  0
  -18.1206  -41.3523   -9.4649 C   0  0  2  0  0  0  0  0  0  0  0  0
  -18.1891  -39.9656   -8.9431 C   0  0  0  0  0  0  0  0  0  0  0  0
  -19.5305  -39.3022   -9.1035 C   0  0  2  0  0  0  0  0  0  0  0  0
  -19.3808  -37.7986   -9.0041 C   0  0  0  0  0  0  0  0  0  0  0  0
  -20.5277  -39.7744   -8.0685 C   0  0  0  0  0  0  0  0  0  0  0  0
  -21.8935  -39.2343   -8.3202 C   0  0  0  0  0  0  0  0  0  0  0  0
  -22.8178  -39.6261   -7.1587 C   0  0  0  0  0  0  0  0  0  0  0  0
  -22.3879  -40.9736   -6.6012 C   0  0  0  0  0  0  0  0  0  0  0  0
  -23.2550  -41.4878   -5.5114 C   0  0  2  0  0  0  0  0  0  0  0  0
  -23.9935  -40.2848   -4.9170 C   0  0  0  0  0  0  0  0  0  0  0  0
  -22.5399  -42.1637   -4.3978 C   0  0  0  0  0  0  0  0  0  0  0  0
  -21.0734  -42.4288   -4.6431 C   0  0  0  0  0  0  0  0  0  0  0  0
  -20.8124  -43.2499   -5.8266 C   0  0  0  0  0  0  0  0  0  0  0  0
  -21.7227  -44.0288   -6.2877 O   0  0  0  0  0  0  0  0  0  0  0  0
  -19.5563  -43.1954   -6.4759 N   0  0  0  0  0  0  0  0  0  0  0  0
  -18.5256  -42.2107   -6.1825 C   0  0  1  0  0  0  0  0  0  0  0  0
  -18.0164  -42.5496   -4.7917 C   0  0  0  0  0  0  0  0  0  0  0  0
  -17.4200  -42.2716   -7.1644 C   0  0  0  0  0  0  0  0  0  0  0  0
  -16.2594  -42.3040   -6.6048 O   0  0  0  0  0  0  0  0  0  0  0  0
  -17.4909  -42.2970   -8.5615 N   0  0  0  0  0  0  0  0  0  0  0  0
  1  2  1  0
  2  3  1  0
  3  4  1  0
  4  5  1  0
  5  6  1  0
  6  7  2  0
  6  8  1  0
  8  9  1  6
  8 10  1  0
 10 11  1  0
 11 12  1  6
 11 13  1  0
 13 14  1  1
 14 15  1  0
 15 16  1  1
 15 17  1  0
 17 18  1  0
 18 19  1  0
 19 20  1  0
 20 21  1  0
 21 22  1  1
 21 23  1  0
 23 24  1  0
 24 25  1  0
 25 26  2  0
 25 27  1  0
 27 28  1  0
 28 29  1  1
 28 30  1  0
 30 31  2  0
 30 32  1  0
 32 13  1  0
M  END
$$$$
