
     RDKit          3D

 32 32  0  0  0  0  0  0  0  0999 V2000
  -12.2744  -37.3442  -15.0149 C   0  0  0  0  0  0  0  0  0  0  0  0
  -13.2432  -37.8392  -13.9358 C   0  0  0  0  0  0  0  0  0  0  0  0
  -13.3747  -36.9427  -12.7806 C   0  0  0  0  0  0  0  0  0  0  0  0
  -12.9068  -37.3462  -11.4510 C   0  0  0  0  0  0  0  0  0  0  0  0
  -13.8791  -37.5336  -10.4349 N   0  0  0  0  0  0  0  0  0  0  0  0
  -14.5303  -38.7006  -10.0121 C   0  0  0  0  0  0  0  0  0  0  0  0
  -14.9860  -39.5127  -10.8380 O   0  0  0  0  0  0  0  0  0  0  0  0
  -14.6896  -38.9908   -8.5458 C   0  0  2  0  0  0  0  0  0  0  0  0
  -13.3927  -39.4201   -7.9255 C   0  0  0  0  0  0  0  0  0  0  0  0
  -15.6915  -40.1336   -8.4238 C   0  0  0  0  0  0  0  0  0  0  0  0
  -17.0329  -39.7015   -8.8966 C   0  0  2  0  0  0  0  0  0  0  0  0
  -17.1772  -38.2932   -8.7717 O   0  0  0  0  0  0  0  0  0  0  0  0
  -18.1461  -40.3731   -8.0771 C   0  0  2  0  0  0  0  0  0  0  0  0
  -18.3424  -39.6689   -6.7866 C   0  0  0  0  0  0  0  0  0  0  0  0
  -19.5467  -38.7673   -6.7426 C   0  0  2  0  0  0  0  0  0  0  0  0
  -19.3992  -37.7590   -5.6223 C   0  0  0  0  0  0  0  0  0  0  0  0
  -20.8322  -39.5416   -6.5516 C   0  0  0  0  0  0  0  0  0  0  0  0
  -22.0336  -38.6669   -6.6605 C   0  0  0  0  0  0  0  0  0  0  0  0
  -23.2883  -39.4796   -6.3103 C   0  0  0  0  0  0  0  0  0  0  0  0
  -23.0910  -40.9255   -6.7367 C   0  0  0  0  0  0  0  0  0  0  0  0
  -24.2716  -41.7958   -6.5073 C   0  0  2  0  0  0  0  0  0  0  0  0
  -25.1306  -41.1174   -5.4360 C   0  0  0  0  0  0  0  0  0  0  0  0
  -23.9639  -43.1676   -6.0260 C   0  0  0  0  0  0  0  0  0  0  0  0
  -22.5024  -43.5471   -6.0584 C   0  0  0  0  0  0  0  0  0  0  0  0
  -21.8995  -43.4588   -7.3895 C   0  0  0  0  0  0  0  0  0  0  0  0
  -22.6353  -43.5272   -8.4393 O   0  0  0  0  0  0  0  0  0  0  0  0
  -20.5014  -43.2974   -7.5356 N   0  0  0  0  0  0  0  0  0  0  0  0
  -19.5931  -42.9989   -6.4383 C   0  0  1  0  0  0  0  0  0  0  0  0
  -19.5603  -44.2514   -5.5788 C   0  0  0  0  0  0  0  0  0  0  0  0
  -18.2349  -42.6757   -6.9291 C   0  0  0  0  0  0  0  0  0  0  0  0
  -17.3132  -43.3251   -6.3048 O   0  0  0  0  0  0  0  0  0  0  0  0
  -17.8592  -41.7890   -7.9441 N   0  0  0  0  0  0  0  0  0  0  0  0
  1  2  1  0
  2  3  1  0
  3  4  1  0
  4  5  1  0
  5  6  1  0
  6  7  2  0
  6  8  1  0
  8  9  1  6
  8 10  1  0
 10 11  1  0
 11 12  1  1
 11 13  1  0
 13 14  1  1
 14 15  1  0
 15 16  1  1
 15 17  1  0
 17 18  1  0
 18 19  1  0
 19 20  1  0
 20 21  1  0
 21 22  1  1
 21 23  1  0
 23 24  1  0
 24 25  1  0
 25 26  2  0
 25 27  1  0
 27 28  1  0
 28 29  1  1
 28 30  1  0
 30 31  2  0
 30 32  1  0
 32 13  1  0
M  END
$$$$
