
     RDKit          3D

 32 32  0  0  0  0  0  0  0  0999 V2000
  -10.6080  -41.1780  -15.4499 C   0  0  0  0  0  0  0  0  0  0  0  0
  -12.1006  -41.2893  -15.1217 C   0  0  0  0  0  0  0  0  0  0  0  0
  -12.5577  -40.3851  -14.0593 C   0  0  0  0  0  0  0  0  0  0  0  0
  -13.9541  -40.3857  -13.6122 C   0  0  0  0  0  0  0  0  0  0  0  0
  -14.3430  -39.4160  -12.6522 N   0  0  0  0  0  0  0  0  0  0  0  0
  -14.4085  -39.5043  -11.2549 C   0  0  0  0  0  0  0  0  0  0  0  0
  -13.8598  -40.4420  -10.6476 O   0  0  0  0  0  0  0  0  0  0  0  0
  -15.1475  -38.4616  -10.4635 C   0  0  2  0  0  0  0  0  0  0  0  0
  -14.4903  -38.2073   -9.1390 C   0  0  0  0  0  0  0  0  0  0  0  0
  -16.5518  -39.0017  -10.2165 C   0  0  0  0  0  0  0  0  0  0  0  0
  -17.0769  -38.5089   -8.9162 C   0  0  2  0  0  0  0  0  0  0  0  0
  -16.0121  -38.0884   -8.0741 O   0  0  0  0  0  0  0  0  0  0  0  0
  -17.8593  -39.6123   -8.1866 C   0  0  2  0  0  0  0  0  0  0  0  0
  -17.7446  -39.4498   -6.7168 C   0  0  0  0  0  0  0  0  0  0  0  0
  -18.9579  -38.8521   -6.0568 C   0  0  2  0  0  0  0  0  0  0  0  0
  -18.5864  -38.2887   -4.7011 C   0  0  0  0  0  0  0  0  0  0  0  0
  -20.0719  -39.8618   -5.8898 C   0  0  0  0  0  0  0  0  0  0  0  0
  -21.3230  -39.2350   -5.3776 C   0  0  0  0  0  0  0  0  0  0  0  0
  -22.3600  -40.3300   -5.0898 C   0  0  0  0  0  0  0  0  0  0  0  0
  -22.1727  -41.4760   -6.0712 C   0  0  0  0  0  0  0  0  0  0  0  0
  -23.1678  -42.5686   -5.9305 C   0  0  2  0  0  0  0  0  0  0  0  0
  -23.7463  -42.4724   -4.5156 C   0  0  0  0  0  0  0  0  0  0  0  0
  -22.6278  -43.9431   -6.0964 C   0  0  0  0  0  0  0  0  0  0  0  0
  -21.2075  -44.0184   -6.6044 C   0  0  0  0  0  0  0  0  0  0  0  0
  -21.0088  -43.3647   -7.8992 C   0  0  0  0  0  0  0  0  0  0  0  0
  -22.0000  -43.1937   -8.6969 O   0  0  0  0  0  0  0  0  0  0  0  0
  -19.7247  -42.9142   -8.2869 N   0  0  0  0  0  0  0  0  0  0  0  0
  -18.5739  -42.8591   -7.3977 C   0  0  1  0  0  0  0  0  0  0  0  0
  -18.2013  -44.3050   -7.1166 C   0  0  0  0  0  0  0  0  0  0  0  0
  -17.4373  -42.1467   -8.0226 C   0  0  0  0  0  0  0  0  0  0  0  0
  -16.3285  -42.7962   -7.9234 O   0  0  0  0  0  0  0  0  0  0  0  0
  -17.4327  -40.9097   -8.6764 N   0  0  0  0  0  0  0  0  0  0  0  0
  1  2  1  0
  2  3  1  0
  3  4  1  0
  4  5  1  0
  5  6  1  0
  6  7  2  0
  6  8  1  0
  8  9  1  1
  8 10  1  0
 10 11  1  0
 11 12  1  1
 11 13  1  0
 13 14  1  1
 14 15  1  0
 15 16  1  1
 15 17  1  0
 17 18  1  0
 18 19  1  0
 19 20  1  0
 20 21  1  0
 21 22  1  1
 21 23  1  0
 23 24  1  0
 24 25  1  0
 25 26  2  0
 25 27  1  0
 27 28  1  0
 28 29  1  6
 28 30  1  0
 30 31  2  0
 30 32  1  0
 32 13  1  0
M  END
$$$$
