
     RDKit          3D

 32 32  0  0  0  0  0  0  0  0999 V2000
  -12.3138  -36.8658  -14.9846 C   0  0  0  0  0  0  0  0  0  0  0  0
  -12.1455  -35.8758  -13.8272 C   0  0  0  0  0  0  0  0  0  0  0  0
  -12.4102  -36.4435  -12.4994 C   0  0  0  0  0  0  0  0  0  0  0  0
  -13.2959  -37.5999  -12.3323 C   0  0  0  0  0  0  0  0  0  0  0  0
  -13.4787  -38.1107  -11.0213 N   0  0  0  0  0  0  0  0  0  0  0  0
  -14.2647  -39.1800  -10.5702 C   0  0  0  0  0  0  0  0  0  0  0  0
  -14.9423  -39.8552  -11.3665 O   0  0  0  0  0  0  0  0  0  0  0  0
  -14.3020  -39.5293   -9.1087 C   0  0  2  0  0  0  0  0  0  0  0  0
  -13.1550  -40.4175   -8.7255 C   0  0  0  0  0  0  0  0  0  0  0  0
  -15.6054  -40.2813   -8.8632 C   0  0  0  0  0  0  0  0  0  0  0  0
  -16.6214  -39.3780   -8.2622 C   0  0  2  0  0  0  0  0  0  0  0  0
  -16.0618  -38.6458   -7.1803 O   0  0  0  0  0  0  0  0  0  0  0  0
  -17.8214  -40.1779   -7.7312 C   0  0  2  0  0  0  0  0  0  0  0  0
  -18.2662  -39.6448   -6.4206 C   0  0  0  0  0  0  0  0  0  0  0  0
  -19.5042  -38.7910   -6.4798 C   0  0  2  0  0  0  0  0  0  0  0  0
  -19.5971  -37.9252   -5.2409 C   0  0  0  0  0  0  0  0  0  0  0  0
  -20.7633  -39.6202   -6.6053 C   0  0  0  0  0  0  0  0  0  0  0  0
  -21.9716  -38.7741   -6.8168 C   0  0  0  0  0  0  0  0  0  0  0  0
  -23.2251  -39.6600   -6.7857 C   0  0  0  0  0  0  0  0  0  0  0  0
  -22.8873  -41.0357   -7.3377 C   0  0  0  0  0  0  0  0  0  0  0  0
  -24.0448  -41.9618   -7.4187 C   0  0  2  0  0  0  0  0  0  0  0  0
  -25.1040  -41.4465   -6.4398 C   0  0  0  0  0  0  0  0  0  0  0  0
  -23.7542  -43.3731   -7.0552 C   0  0  0  0  0  0  0  0  0  0  0  0
  -22.2908  -43.7029   -6.8792 C   0  0  0  0  0  0  0  0  0  0  0  0
  -21.4785  -43.4331   -8.0668 C   0  0  0  0  0  0  0  0  0  0  0  0
  -22.0235  -43.3925   -9.2284 O   0  0  0  0  0  0  0  0  0  0  0  0
  -20.0854  -43.2141   -7.9496 N   0  0  0  0  0  0  0  0  0  0  0  0
  -19.3900  -43.0273   -6.6849 C   0  0  1  0  0  0  0  0  0  0  0  0
  -19.4394  -44.3750   -5.9850 C   0  0  0  0  0  0  0  0  0  0  0  0
  -17.9866  -42.6065   -6.8928 C   0  0  0  0  0  0  0  0  0  0  0  0
  -17.1514  -43.3009   -6.1991 O   0  0  0  0  0  0  0  0  0  0  0  0
  -17.4907  -41.5905   -7.7172 N   0  0  0  0  0  0  0  0  0  0  0  0
  1  2  1  0
  2  3  1  0
  3  4  1  0
  4  5  1  0
  5  6  1  0
  6  7  2  0
  6  8  1  0
  8  9  1  6
  8 10  1  0
 10 11  1  0
 11 12  1  1
 11 13  1  0
 13 14  1  1
 14 15  1  0
 15 16  1  1
 15 17  1  0
 17 18  1  0
 18 19  1  0
 19 20  1  0
 20 21  1  0
 21 22  1  1
 21 23  1  0
 23 24  1  0
 24 25  1  0
 25 26  2  0
 25 27  1  0
 27 28  1  0
 28 29  1  6
 28 30  1  0
 30 31  2  0
 30 32  1  0
 32 13  1  0
M  END
$$$$
