
     RDKit          3D

 32 32  0  0  0  0  0  0  0  0999 V2000
  -12.0539  -34.7397  -13.0427 C   0  0  0  0  0  0  0  0  0  0  0  0
  -13.0488  -35.6562  -13.7625 C   0  0  0  0  0  0  0  0  0  0  0  0
  -12.6960  -37.0809  -13.7285 C   0  0  0  0  0  0  0  0  0  0  0  0
  -12.7663  -37.8496  -12.4819 C   0  0  0  0  0  0  0  0  0  0  0  0
  -13.9029  -38.6730  -12.2743 N   0  0  0  0  0  0  0  0  0  0  0  0
  -14.2316  -39.5029  -11.1936 C   0  0  0  0  0  0  0  0  0  0  0  0
  -13.3473  -40.1110  -10.5631 O   0  0  0  0  0  0  0  0  0  0  0  0
  -15.6660  -39.6725  -10.7772 C   0  0  2  0  0  0  0  0  0  0  0  0
  -16.3959  -38.3617  -10.7703 C   0  0  0  0  0  0  0  0  0  0  0  0
  -15.6553  -40.2333   -9.3594 C   0  0  0  0  0  0  0  0  0  0  0  0
  -16.5337  -39.4246   -8.4740 C   0  0  2  0  0  0  0  0  0  0  0  0
  -15.7742  -38.8126   -7.4404 O   0  0  0  0  0  0  0  0  0  0  0  0
  -17.6130  -40.3028   -7.8215 C   0  0  2  0  0  0  0  0  0  0  0  0
  -17.8421  -39.8909   -6.4152 C   0  0  0  0  0  0  0  0  0  0  0  0
  -19.0882  -39.0755   -6.1971 C   0  0  2  0  0  0  0  0  0  0  0  0
  -18.9886  -38.3150   -4.8913 C   0  0  0  0  0  0  0  0  0  0  0  0
  -20.3350  -39.9321   -6.1824 C   0  0  0  0  0  0  0  0  0  0  0  0
  -21.5770  -39.1112   -6.1194 C   0  0  0  0  0  0  0  0  0  0  0  0
  -22.7912  -40.0368   -5.9565 C   0  0  0  0  0  0  0  0  0  0  0  0
  -22.5251  -41.3523   -6.6707 C   0  0  0  0  0  0  0  0  0  0  0  0
  -23.6625  -42.3057   -6.6372 C   0  0  2  0  0  0  0  0  0  0  0  0
  -24.5524  -41.9048   -5.4569 C   0  0  0  0  0  0  0  0  0  0  0  0
  -23.2891  -43.7314   -6.4470 C   0  0  0  0  0  0  0  0  0  0  0  0
  -21.8111  -44.0269   -6.5434 C   0  0  0  0  0  0  0  0  0  0  0  0
  -21.2139  -43.6369   -7.8218 C   0  0  0  0  0  0  0  0  0  0  0  0
  -21.9461  -43.5210   -8.8699 O   0  0  0  0  0  0  0  0  0  0  0  0
  -19.8252  -43.3832   -7.9182 N   0  0  0  0  0  0  0  0  0  0  0  0
  -18.9317  -43.2759   -6.7745 C   0  0  1  0  0  0  0  0  0  0  0  0
  -18.8384  -44.6761   -6.1921 C   0  0  0  0  0  0  0  0  0  0  0  0
  -17.5908  -42.7947   -7.1751 C   0  0  0  0  0  0  0  0  0  0  0  0
  -16.6386  -43.5152   -6.6898 O   0  0  0  0  0  0  0  0  0  0  0  0
  -17.2586  -41.7005   -7.9814 N   0  0  0  0  0  0  0  0  0  0  0  0
  1  2  1  0
  2  3  1  0
  3  4  1  0
  4  5  1  0
  5  6  1  0
  6  7  2  0
  6  8  1  0
  8  9  1  1
  8 10  1  0
 10 11  1  0
 11 12  1  1
 11 13  1  0
 13 14  1  1
 14 15  1  0
 15 16  1  1
 15 17  1  0
 17 18  1  0
 18 19  1  0
 19 20  1  0
 20 21  1  0
 21 22  1  1
 21 23  1  0
 23 24  1  0
 24 25  1  0
 25 26  2  0
 25 27  1  0
 27 28  1  0
 28 29  1  6
 28 30  1  0
 30 31  2  0
 30 32  1  0
 32 13  1  0
M  END
$$$$
