
     RDKit          3D

 32 32  0  0  0  0  0  0  0  0999 V2000
  -15.2588  -44.2544  -13.1720 C   0  0  0  0  0  0  0  0  0  0  0  0
  -13.9190  -44.0859  -12.4478 C   0  0  0  0  0  0  0  0  0  0  0  0
  -13.7093  -42.7570  -11.8603 C   0  0  0  0  0  0  0  0  0  0  0  0
  -14.8383  -41.8617  -11.5886 C   0  0  0  0  0  0  0  0  0  0  0  0
  -14.5506  -40.5652  -11.0894 N   0  0  0  0  0  0  0  0  0  0  0  0
  -14.0448  -40.1688   -9.8437 C   0  0  0  0  0  0  0  0  0  0  0  0
  -13.4997  -40.9909   -9.0846 O   0  0  0  0  0  0  0  0  0  0  0  0
  -14.1540  -38.7359   -9.4026 C   0  0  2  0  0  0  0  0  0  0  0  0
  -12.8046  -38.1393   -9.1304 C   0  0  0  0  0  0  0  0  0  0  0  0
  -14.9616  -38.7279   -8.1094 C   0  0  0  0  0  0  0  0  0  0  0  0
  -16.3778  -38.3689   -8.3832 C   0  0  2  0  0  0  0  0  0  0  0  0
  -16.7574  -37.2238   -7.6320 O   0  0  0  0  0  0  0  0  0  0  0  0
  -17.3193  -39.5239   -8.0072 C   0  0  2  0  0  0  0  0  0  0  0  0
  -17.7408  -39.4142   -6.5894 C   0  0  0  0  0  0  0  0  0  0  0  0
  -19.1342  -38.8813   -6.3903 C   0  0  2  0  0  0  0  0  0  0  0  0
  -19.2929  -38.3585   -4.9779 C   0  0  0  0  0  0  0  0  0  0  0  0
  -20.1899  -39.9318   -6.6555 C   0  0  0  0  0  0  0  0  0  0  0  0
  -21.5674  -39.3655   -6.6073 C   0  0  0  0  0  0  0  0  0  0  0  0
  -22.5903  -40.5033   -6.7344 C   0  0  0  0  0  0  0  0  0  0  0  0
  -22.0172  -41.6043   -7.6124 C   0  0  0  0  0  0  0  0  0  0  0  0
  -22.9489  -42.7329   -7.8619 C   0  0  2  0  0  0  0  0  0  0  0  0
  -23.9954  -42.7094   -6.7439 C   0  0  0  0  0  0  0  0  0  0  0  0
  -22.3259  -44.0820   -7.8581 C   0  0  0  0  0  0  0  0  0  0  0  0
  -20.8159  -44.0922   -7.8287 C   0  0  0  0  0  0  0  0  0  0  0  0
  -20.1993  -43.3836   -8.9515 C   0  0  0  0  0  0  0  0  0  0  0  0
  -20.8493  -43.2140  -10.0455 O   0  0  0  0  0  0  0  0  0  0  0  0
  -18.8821  -42.8776   -8.8455 N   0  0  0  0  0  0  0  0  0  0  0  0
  -18.1254  -42.8197   -7.6037 C   0  0  1  0  0  0  0  0  0  0  0  0
  -17.8141  -44.2626   -7.2436 C   0  0  0  0  0  0  0  0  0  0  0  0
  -16.8731  -42.0480   -7.7654 C   0  0  0  0  0  0  0  0  0  0  0  0
  -15.8445  -42.6649   -7.2936 O   0  0  0  0  0  0  0  0  0  0  0  0
  -16.6907  -40.7873   -8.3443 N   0  0  0  0  0  0  0  0  0  0  0  0
  1  2  1  0
  2  3  1  0
  3  4  1  0
  4  5  1  0
  5  6  1  0
  6  7  2  0
  6  8  1  0
  8  9  1  1
  8 10  1  0
 10 11  1  0
 11 12  1  1
 11 13  1  0
 13 14  1  1
 14 15  1  0
 15 16  1  1
 15 17  1  0
 17 18  1  0
 18 19  1  0
 19 20  1  0
 20 21  1  0
 21 22  1  1
 21 23  1  0
 23 24  1  0
 24 25  1  0
 25 26  2  0
 25 27  1  0
 27 28  1  0
 28 29  1  6
 28 30  1  0
 30 31  2  0
 30 32  1  0
 32 13  1  0
M  END
$$$$
