
     RDKit          3D

 41 43  0  0  0  0  0  0  0  0999 V2000
  -24.6106  -39.1832   -6.3400 C   0  0  0  0  0  0  0  0  0  0  0  0
  -23.2867  -39.8640   -6.1333 C   0  0  0  0  0  0  0  0  0  0  0  0
  -23.4777  -41.3685   -6.2682 C   0  0  0  0  0  0  0  0  0  0  0  0
  -22.3145  -39.3771   -7.1493 C   0  0  0  0  0  0  0  0  0  0  0  0
  -21.0510  -38.9578   -6.7871 C   0  0  0  0  0  0  0  0  0  0  0  0
  -20.1404  -38.5023   -7.7434 C   0  0  0  0  0  0  0  0  0  0  0  0
  -18.7832  -38.0679   -7.2785 C   0  0  0  0  0  0  0  0  0  0  0  0
  -18.2486  -39.0517   -6.3975 N   0  0  0  0  0  0  0  0  0  0  0  0
  -16.8225  -39.0553   -6.2528 C   0  0  0  0  0  0  0  0  0  0  0  0
  -16.1884  -38.8305   -7.6010 C   0  0  1  0  0  0  0  0  0  0  0  0
  -14.8668  -38.4179   -7.4034 O   0  0  0  0  0  0  0  0  0  0  0  0
  -16.2856  -40.0256   -8.5253 C   0  0  2  0  0  0  0  0  0  0  0  0
  -16.2329  -39.5912   -9.9256 C   0  0  0  0  0  0  0  0  0  0  0  0
  -14.8544  -39.8273  -10.4969 C   0  0  2  0  0  0  0  0  0  0  0  0
  -13.9508  -38.6640  -10.0927 C   0  0  0  0  0  0  0  0  0  0  0  0
  -14.9426  -39.8227  -12.0054 C   0  0  0  0  0  0  0  0  0  0  0  0
  -13.8458  -40.6214  -12.6541 C   0  0  0  0  0  0  0  0  0  0  0  0
  -14.0059  -42.0975  -12.4771 C   0  0  0  0  0  0  0  0  0  0  0  0
  -12.6993  -42.8355  -12.3738 C   0  0  0  0  0  0  0  0  0  0  0  0
  -12.9084  -44.2720  -12.7872 C   0  0  0  0  0  0  0  0  0  0  0  0
  -13.8508  -45.0027  -11.8691 C   0  0  0  0  0  0  0  0  0  0  0  0
  -13.2174  -45.4842  -10.6107 C   0  0  0  0  0  0  0  0  0  0  0  0
  -14.1180  -45.5492   -9.5644 O   0  0  0  0  0  0  0  0  0  0  0  0
  -15.3610  -45.0349   -9.2458 C   0  0  0  0  0  0  0  0  0  0  0  0
  -16.2788  -46.0766   -9.0101 C   0  0  0  0  0  0  0  0  0  0  0  0
  -17.5845  -45.8354   -8.6767 C   0  0  0  0  0  0  0  0  0  0  0  0
  -17.9401  -44.5279   -8.5866 C   0  0  0  0  0  0  0  0  0  0  0  0
  -17.0609  -43.4261   -8.8109 C   0  0  0  0  0  0  0  0  0  0  0  0
  -15.7598  -43.7122   -9.1429 C   0  0  0  0  0  0  0  0  0  0  0  0
  -17.7588  -42.1270   -8.6413 C   0  0  0  0  0  0  0  0  0  0  0  0
  -19.0184  -42.1383   -9.0431 O   0  0  0  0  0  0  0  0  0  0  0  0
  -17.4010  -40.8771   -8.1516 N   0  0  0  0  0  0  0  0  0  0  0  0
  -18.5029  -46.8915   -8.4408 N   0  0  0  0  0  0  0  0  0  0  0  0
  -18.6724  -47.9265   -9.4633 C   0  0  0  0  0  0  0  0  0  0  0  0
  -19.4155  -46.9826   -6.9930 S   0  0  0  0  0  6  0  0  0  0  0  0
  -21.0176  -46.2527   -7.3402 C   0  0  0  0  0  0  0  0  0  0  0  0
  -18.7904  -46.1432   -5.9306 O   0  0  0  0  0  0  0  0  0  0  0  0
  -19.5612  -48.3723   -6.4749 O   0  0  0  0  0  0  0  0  0  0  0  0
  -20.5113  -38.4717   -9.0683 C   0  0  0  0  0  0  0  0  0  0  0  0
  -21.7753  -38.8912   -9.4293 C   0  0  0  0  0  0  0  0  0  0  0  0
  -22.6639  -39.3398   -8.4648 C   0  0  0  0  0  0  0  0  0  0  0  0
  1  2  1  0
  2  3  1  0
  2  4  1  0
  4  5  2  0
  5  6  1  0
  6  7  1  0
  7  8  1  0
  8  9  1  0
  9 10  1  0
 10 11  1  1
 10 12  1  0
 12 13  1  6
 13 14  1  0
 14 15  1  6
 14 16  1  0
 16 17  1  0
 17 18  1  0
 18 19  1  0
 19 20  1  0
 20 21  1  0
 21 22  1  0
 22 23  1  0
 23 24  1  0
 24 25  2  0
 25 26  1  0
 26 27  2  0
 27 28  1  0
 28 29  2  0
 28 30  1  0
 30 31  2  0
 30 32  1  0
 26 33  1  0
 33 34  1  0
 33 35  1  0
 35 36  1  0
 35 37  2  0
 35 38  2  0
  6 39  2  0
 39 40  1  0
 40 41  2  0
 29 24  1  0
 32 12  1  0
 41  4  1  0
M  END
$$$$
