
     RDKit          3D

 41 43  0  0  0  0  0  0  0  0999 V2000
  -19.4122  -36.6929  -12.7770 C   0  0  0  0  0  0  0  0  0  0  0  0
  -18.0130  -36.1442  -12.7952 C   0  0  0  0  0  0  0  0  0  0  0  0
  -17.9297  -34.9699  -11.8296 C   0  0  0  0  0  0  0  0  0  0  0  0
  -17.0569  -37.2102  -12.3907 C   0  0  0  0  0  0  0  0  0  0  0  0
  -16.4034  -37.1619  -11.1766 C   0  0  0  0  0  0  0  0  0  0  0  0
  -15.5072  -38.1648  -10.7993 C   0  0  0  0  0  0  0  0  0  0  0  0
  -14.8377  -38.0502   -9.4631 C   0  0  0  0  0  0  0  0  0  0  0  0
  -15.8283  -38.0230   -8.4395 N   0  0  0  0  0  0  0  0  0  0  0  0
  -16.7206  -39.1441   -8.4003 C   0  0  0  0  0  0  0  0  0  0  0  0
  -16.2907  -40.0797   -7.3002 C   0  0  1  0  0  0  0  0  0  0  0  0
  -15.7177  -39.3206   -6.2747 O   0  0  0  0  0  0  0  0  0  0  0  0
  -17.4005  -40.9790   -6.7987 C   0  0  2  0  0  0  0  0  0  0  0  0
  -18.0245  -40.3990   -5.6043 C   0  0  0  0  0  0  0  0  0  0  0  0
  -19.3336  -39.7366   -5.9650 C   0  0  2  0  0  0  0  0  0  0  0  0
  -19.0424  -38.3372   -6.5033 C   0  0  0  0  0  0  0  0  0  0  0  0
  -20.1600  -39.5711   -4.7109 C   0  0  0  0  0  0  0  0  0  0  0  0
  -21.6365  -39.5148   -4.9912 C   0  0  0  0  0  0  0  0  0  0  0  0
  -22.2105  -40.8328   -5.4025 C   0  0  0  0  0  0  0  0  0  0  0  0
  -23.3441  -40.7145   -6.3840 C   0  0  0  0  0  0  0  0  0  0  0  0
  -24.2127  -41.9451   -6.2873 C   0  0  0  0  0  0  0  0  0  0  0  0
  -23.4781  -43.1990   -6.6784 C   0  0  0  0  0  0  0  0  0  0  0  0
  -23.3852  -43.4119   -8.1489 C   0  0  0  0  0  0  0  0  0  0  0  0
  -22.2512  -44.1176   -8.5039 O   0  0  0  0  0  0  0  0  0  0  0  0
  -21.0275  -44.4416   -7.9486 C   0  0  0  0  0  0  0  0  0  0  0  0
  -20.8712  -45.8396   -7.8838 C   0  0  0  0  0  0  0  0  0  0  0  0
  -19.7437  -46.4237   -7.3720 C   0  0  0  0  0  0  0  0  0  0  0  0
  -18.7838  -45.5703   -6.9307 C   0  0  0  0  0  0  0  0  0  0  0  0
  -18.8781  -44.1466   -6.9687 C   0  0  0  0  0  0  0  0  0  0  0  0
  -20.0256  -43.6020   -7.4899 C   0  0  0  0  0  0  0  0  0  0  0  0
  -17.6650  -43.5036   -6.4043 C   0  0  0  0  0  0  0  0  0  0  0  0
  -17.1292  -44.1645   -5.3921 O   0  0  0  0  0  0  0  0  0  0  0  0
  -16.9415  -42.3523   -6.6891 N   0  0  0  0  0  0  0  0  0  0  0  0
  -19.5945  -47.8337   -7.3105 N   0  0  0  0  0  0  0  0  0  0  0  0
  -18.8076  -48.5101   -8.3444 C   0  0  0  0  0  0  0  0  0  0  0  0
  -20.3120  -48.7600   -6.0597 S   0  0  0  0  0  6  0  0  0  0  0  0
  -21.1528  -50.1359   -6.8471 C   0  0  0  0  0  0  0  0  0  0  0  0
  -21.3640  -47.9655   -5.3624 O   0  0  0  0  0  0  0  0  0  0  0  0
  -19.3313  -49.2411   -5.0461 O   0  0  0  0  0  0  0  0  0  0  0  0
  -15.2733  -39.2177  -11.6541 C   0  0  0  0  0  0  0  0  0  0  0  0
  -15.9273  -39.2649  -12.8681 C   0  0  0  0  0  0  0  0  0  0  0  0
  -16.8129  -38.2596  -13.2234 C   0  0  0  0  0  0  0  0  0  0  0  0
  1  2  1  0
  2  3  1  0
  2  4  1  0
  4  5  2  0
  5  6  1  0
  6  7  1  0
  7  8  1  0
  8  9  1  0
  9 10  1  0
 10 11  1  1
 10 12  1  0
 12 13  1  1
 13 14  1  0
 14 15  1  1
 14 16  1  0
 16 17  1  0
 17 18  1  0
 18 19  1  0
 19 20  1  0
 20 21  1  0
 21 22  1  0
 22 23  1  0
 23 24  1  0
 24 25  2  0
 25 26  1  0
 26 27  2  0
 27 28  1  0
 28 29  2  0
 28 30  1  0
 30 31  2  0
 30 32  1  0
 26 33  1  0
 33 34  1  0
 33 35  1  0
 35 36  1  0
 35 37  2  0
 35 38  2  0
  6 39  2  0
 39 40  1  0
 40 41  2  0
 29 24  1  0
 32 12  1  0
 41  4  1  0
M  END
$$$$
