
     RDKit          3D

 41 43  0  0  0  0  0  0  0  0999 V2000
  -15.2212  -36.1567  -12.3093 C   0  0  0  0  0  0  0  0  0  0  0  0
  -13.9614  -36.8750  -12.7042 C   0  0  0  0  0  0  0  0  0  0  0  0
  -12.7616  -36.0417  -12.2748 C   0  0  0  0  0  0  0  0  0  0  0  0
  -13.9229  -38.2081  -12.0443 C   0  0  0  0  0  0  0  0  0  0  0  0
  -13.6509  -38.3322  -10.6974 C   0  0  0  0  0  0  0  0  0  0  0  0
  -13.6166  -39.5850  -10.0808 C   0  0  0  0  0  0  0  0  0  0  0  0
  -13.3203  -39.6439   -8.6126 C   0  0  0  0  0  0  0  0  0  0  0  0
  -14.5421  -39.5890   -7.8818 N   0  0  0  0  0  0  0  0  0  0  0  0
  -15.7149  -40.0138   -8.5879 C   0  0  0  0  0  0  0  0  0  0  0  0
  -16.9151  -39.2929   -8.0311 C   0  0  1  0  0  0  0  0  0  0  0  0
  -17.4411  -38.4724   -9.0341 O   0  0  0  0  0  0  0  0  0  0  0  0
  -17.9579  -40.2166   -7.4380 C   0  0  2  0  0  0  0  0  0  0  0  0
  -18.4684  -39.6649   -6.1782 C   0  0  0  0  0  0  0  0  0  0  0  0
  -19.8154  -39.0167   -6.3966 C   0  0  2  0  0  0  0  0  0  0  0  0
  -19.5977  -37.6047   -6.9369 C   0  0  0  0  0  0  0  0  0  0  0  0
  -20.5160  -38.8833   -5.0644 C   0  0  0  0  0  0  0  0  0  0  0  0
  -22.0136  -38.8448   -5.1967 C   0  0  0  0  0  0  0  0  0  0  0  0
  -22.6077  -40.1647   -5.5720 C   0  0  0  0  0  0  0  0  0  0  0  0
  -23.8343  -40.0479   -6.4347 C   0  0  0  0  0  0  0  0  0  0  0  0
  -24.6726  -41.2928   -6.2739 C   0  0  0  0  0  0  0  0  0  0  0  0
  -23.9635  -42.5293   -6.7569 C   0  0  0  0  0  0  0  0  0  0  0  0
  -24.0136  -42.7175   -8.2330 C   0  0  0  0  0  0  0  0  0  0  0  0
  -22.9109  -43.4005   -8.7101 O   0  0  0  0  0  0  0  0  0  0  0  0
  -21.6340  -43.7148   -8.2838 C   0  0  0  0  0  0  0  0  0  0  0  0
  -21.4534  -45.1111   -8.2587 C   0  0  0  0  0  0  0  0  0  0  0  0
  -20.2731  -45.6861   -7.8707 C   0  0  0  0  0  0  0  0  0  0  0  0
  -19.2858  -44.8255   -7.5116 C   0  0  0  0  0  0  0  0  0  0  0  0
  -19.4024  -43.4030   -7.5158 C   0  0  0  0  0  0  0  0  0  0  0  0
  -20.6030  -42.8676   -7.9119 C   0  0  0  0  0  0  0  0  0  0  0  0
  -18.1482  -42.7508   -7.0628 C   0  0  0  0  0  0  0  0  0  0  0  0
  -17.5062  -43.4194   -6.1199 O   0  0  0  0  0  0  0  0  0  0  0  0
  -17.4719  -41.5844   -7.3978 N   0  0  0  0  0  0  0  0  0  0  0  0
  -20.0997  -47.0946   -7.8484 N   0  0  0  0  0  0  0  0  0  0  0  0
  -21.0295  -47.9363   -8.6051 C   0  0  0  0  0  0  0  0  0  0  0  0
  -18.8329  -47.8305   -6.9592 S   0  0  0  0  0  6  0  0  0  0  0  0
  -19.5487  -49.2298   -6.0934 C   0  0  0  0  0  0  0  0  0  0  0  0
  -18.3251  -46.8998   -5.9103 O   0  0  0  0  0  0  0  0  0  0  0  0
  -17.6862  -48.2569   -7.8100 O   0  0  0  0  0  0  0  0  0  0  0  0
  -13.8583  -40.7135  -10.8306 C   0  0  0  0  0  0  0  0  0  0  0  0
  -14.1302  -40.5882  -12.1775 C   0  0  0  0  0  0  0  0  0  0  0  0
  -14.1597  -39.3356  -12.7702 C   0  0  0  0  0  0  0  0  0  0  0  0
  1  2  1  0
  2  3  1  0
  2  4  1  0
  4  5  2  0
  5  6  1  0
  6  7  1  0
  7  8  1  0
  8  9  1  0
  9 10  1  0
 10 11  1  6
 10 12  1  0
 12 13  1  1
 13 14  1  0
 14 15  1  1
 14 16  1  0
 16 17  1  0
 17 18  1  0
 18 19  1  0
 19 20  1  0
 20 21  1  0
 21 22  1  0
 22 23  1  0
 23 24  1  0
 24 25  2  0
 25 26  1  0
 26 27  2  0
 27 28  1  0
 28 29  2  0
 28 30  1  0
 30 31  2  0
 30 32  1  0
 26 33  1  0
 33 34  1  0
 33 35  1  0
 35 36  1  0
 35 37  2  0
 35 38  2  0
  6 39  2  0
 39 40  1  0
 40 41  2  0
 29 24  1  0
 32 12  1  0
 41  4  1  0
M  END
$$$$
