
     RDKit          3D

 41 43  0  0  0  0  0  0  0  0999 V2000
  -13.3315  -36.3858  -11.9582 C   0  0  0  0  0  0  0  0  0  0  0  0
  -12.1658  -37.3140  -12.1552 C   0  0  0  0  0  0  0  0  0  0  0  0
  -10.9302  -36.6998  -11.5116 C   0  0  0  0  0  0  0  0  0  0  0  0
  -12.4690  -38.6304  -11.5311 C   0  0  0  0  0  0  0  0  0  0  0  0
  -12.7931  -38.7304  -10.1938 C   0  0  0  0  0  0  0  0  0  0  0  0
  -13.0782  -39.9675   -9.6112 C   0  0  0  0  0  0  0  0  0  0  0  0
  -13.4282  -40.0003   -8.1541 C   0  0  0  0  0  0  0  0  0  0  0  0
  -14.4582  -39.0507   -7.8944 N   0  0  0  0  0  0  0  0  0  0  0  0
  -15.7257  -39.3166   -8.5086 C   0  0  0  0  0  0  0  0  0  0  0  0
  -16.8202  -38.7233   -7.6598 C   0  0  1  0  0  0  0  0  0  0  0  0
  -17.2174  -37.5123   -8.2358 O   0  0  0  0  0  0  0  0  0  0  0  0
  -17.9867  -39.6606   -7.4298 C   0  0  2  0  0  0  0  0  0  0  0  0
  -18.9288  -39.0741   -6.4703 C   0  0  0  0  0  0  0  0  0  0  0  0
  -20.1199  -38.4909   -7.1937 C   0  0  2  0  0  0  0  0  0  0  0  0
  -19.7522  -37.0969   -7.6982 C   0  0  0  0  0  0  0  0  0  0  0  0
  -21.2565  -38.3264   -6.2115 C   0  0  0  0  0  0  0  0  0  0  0  0
  -22.6060  -38.3539   -6.8745 C   0  0  0  0  0  0  0  0  0  0  0  0
  -22.9966  -39.7120   -7.3634 C   0  0  0  0  0  0  0  0  0  0  0  0
  -23.8317  -39.6832   -8.6140 C   0  0  0  0  0  0  0  0  0  0  0  0
  -24.6448  -40.9523   -8.6953 C   0  0  0  0  0  0  0  0  0  0  0  0
  -23.7831  -42.1797   -8.8213 C   0  0  0  0  0  0  0  0  0  0  0  0
  -23.2935  -42.4355  -10.2039 C   0  0  0  0  0  0  0  0  0  0  0  0
  -22.0786  -43.0943  -10.2142 O   0  0  0  0  0  0  0  0  0  0  0  0
  -21.0350  -43.3378   -9.3411 C   0  0  0  0  0  0  0  0  0  0  0  0
  -20.8458  -44.7232   -9.1745 C   0  0  0  0  0  0  0  0  0  0  0  0
  -19.8728  -45.2325   -8.3570 C   0  0  0  0  0  0  0  0  0  0  0  0
  -19.1001  -44.3178   -7.7164 C   0  0  0  0  0  0  0  0  0  0  0  0
  -19.2377  -42.9027   -7.8419 C   0  0  0  0  0  0  0  0  0  0  0  0
  -20.2258  -42.4341   -8.6720 C   0  0  0  0  0  0  0  0  0  0  0  0
  -18.2454  -42.1812   -7.0062 C   0  0  0  0  0  0  0  0  0  0  0  0
  -17.9724  -42.7807   -5.8598 O   0  0  0  0  0  0  0  0  0  0  0  0
  -17.5188  -41.0047   -7.1411 N   0  0  0  0  0  0  0  0  0  0  0  0
  -19.6891  -46.6305   -8.1950 N   0  0  0  0  0  0  0  0  0  0  0  0
  -20.8671  -47.4992   -8.1363 C   0  0  0  0  0  0  0  0  0  0  0  0
  -18.1268  -47.3229   -8.0659 S   0  0  0  0  0  6  0  0  0  0  0  0
  -17.6642  -47.2458   -6.3338 C   0  0  0  0  0  0  0  0  0  0  0  0
  -17.1294  -46.4976   -8.8064 O   0  0  0  0  0  0  0  0  0  0  0  0
  -18.0579  -48.7212   -8.5767 O   0  0  0  0  0  0  0  0  0  0  0  0
  -13.0346  -41.1045  -10.3854 C   0  0  0  0  0  0  0  0  0  0  0  0
  -12.7103  -41.0033  -11.7227 C   0  0  0  0  0  0  0  0  0  0  0  0
  -12.4308  -39.7660  -12.2815 C   0  0  0  0  0  0  0  0  0  0  0  0
  1  2  1  0
  2  3  1  0
  2  4  1  0
  4  5  2  0
  5  6  1  0
  6  7  1  0
  7  8  1  0
  8  9  1  0
  9 10  1  0
 10 11  1  6
 10 12  1  0
 12 13  1  1
 13 14  1  0
 14 15  1  1
 14 16  1  0
 16 17  1  0
 17 18  1  0
 18 19  1  0
 19 20  1  0
 20 21  1  0
 21 22  1  0
 22 23  1  0
 23 24  1  0
 24 25  2  0
 25 26  1  0
 26 27  2  0
 27 28  1  0
 28 29  2  0
 28 30  1  0
 30 31  2  0
 30 32  1  0
 26 33  1  0
 33 34  1  0
 33 35  1  0
 35 36  1  0
 35 37  2  0
 35 38  2  0
  6 39  2  0
 39 40  1  0
 40 41  2  0
 29 24  1  0
 32 12  1  0
 41  4  1  0
M  END
$$$$
