
     RDKit          3D

 41 43  0  0  0  0  0  0  0  0999 V2000
  -24.6370  -40.0765   -7.6080 C   0  0  0  0  0  0  0  0  0  0  0  0
  -23.7938  -39.2225   -6.7031 C   0  0  0  0  0  0  0  0  0  0  0  0
  -24.2895  -39.3788   -5.2720 C   0  0  0  0  0  0  0  0  0  0  0  0
  -22.3714  -39.6482   -6.8030 C   0  0  0  0  0  0  0  0  0  0  0  0
  -21.4223  -38.8393   -7.3931 C   0  0  0  0  0  0  0  0  0  0  0  0
  -20.0877  -39.2414   -7.4843 C   0  0  0  0  0  0  0  0  0  0  0  0
  -19.1099  -38.3089   -8.1332 C   0  0  0  0  0  0  0  0  0  0  0  0
  -18.1348  -37.9059   -7.1758 N   0  0  0  0  0  0  0  0  0  0  0  0
  -17.5133  -38.9614   -6.4313 C   0  0  0  0  0  0  0  0  0  0  0  0
  -16.2517  -39.3871   -7.1366 C   0  0  1  0  0  0  0  0  0  0  0  0
  -15.2510  -39.5715   -6.1770 O   0  0  0  0  0  0  0  0  0  0  0  0
  -16.4305  -40.6021   -8.0219 C   0  0  2  0  0  0  0  0  0  0  0  0
  -16.0948  -40.2727   -9.4115 C   0  0  0  0  0  0  0  0  0  0  0  0
  -14.7146  -40.7834   -9.7533 C   0  0  2  0  0  0  0  0  0  0  0  0
  -13.6818  -39.7744   -9.2552 C   0  0  0  0  0  0  0  0  0  0  0  0
  -14.5791  -40.8582  -11.2564 C   0  0  0  0  0  0  0  0  0  0  0  0
  -13.5647  -41.8768  -11.6984 C   0  0  0  0  0  0  0  0  0  0  0  0
  -14.0174  -43.2876  -11.4962 C   0  0  0  0  0  0  0  0  0  0  0  0
  -12.8979  -44.2362  -11.1654 C   0  0  0  0  0  0  0  0  0  0  0  0
  -13.3046  -45.6365  -11.5551 C   0  0  0  0  0  0  0  0  0  0  0  0
  -14.4891  -46.1305  -10.7691 C   0  0  0  0  0  0  0  0  0  0  0  0
  -14.1458  -46.6360   -9.4114 C   0  0  0  0  0  0  0  0  0  0  0  0
  -15.1861  -46.4753   -8.5158 O   0  0  0  0  0  0  0  0  0  0  0  0
  -16.3464  -45.7312   -8.4123 C   0  0  0  0  0  0  0  0  0  0  0  0
  -17.4643  -46.5779   -8.2852 C   0  0  0  0  0  0  0  0  0  0  0  0
  -18.7381  -46.0900   -8.1672 C   0  0  0  0  0  0  0  0  0  0  0  0
  -18.8568  -44.7373   -8.1797 C   0  0  0  0  0  0  0  0  0  0  0  0
  -17.7669  -43.8240   -8.3037 C   0  0  0  0  0  0  0  0  0  0  0  0
  -16.5062  -44.3551   -8.4195 C   0  0  0  0  0  0  0  0  0  0  0  0
  -18.2315  -42.4142   -8.2906 C   0  0  0  0  0  0  0  0  0  0  0  0
  -19.3993  -42.2286   -8.8823 O   0  0  0  0  0  0  0  0  0  0  0  0
  -17.7258  -41.2186   -7.7958 N   0  0  0  0  0  0  0  0  0  0  0  0
  -19.8592  -46.9509   -8.0394 N   0  0  0  0  0  0  0  0  0  0  0  0
  -21.2014  -46.3661   -7.9920 C   0  0  0  0  0  0  0  0  0  0  0  0
  -19.6795  -48.6522   -7.9386 S   0  0  0  0  0  6  0  0  0  0  0  0
  -21.2033  -49.3744   -8.5521 C   0  0  0  0  0  0  0  0  0  0  0  0
  -19.5535  -49.0784   -6.5150 O   0  0  0  0  0  0  0  0  0  0  0  0
  -18.5017  -49.1660   -8.6933 O   0  0  0  0  0  0  0  0  0  0  0  0
  -19.7150  -40.4650   -6.9765 C   0  0  0  0  0  0  0  0  0  0  0  0
  -20.6650  -41.2732   -6.3865 C   0  0  0  0  0  0  0  0  0  0  0  0
  -21.9842  -40.8554   -6.3060 C   0  0  0  0  0  0  0  0  0  0  0  0
  1  2  1  0
  2  3  1  0
  2  4  1  0
  4  5  2  0
  5  6  1  0
  6  7  1  0
  7  8  1  0
  8  9  1  0
  9 10  1  0
 10 11  1  1
 10 12  1  0
 12 13  1  6
 13 14  1  0
 14 15  1  6
 14 16  1  0
 16 17  1  0
 17 18  1  0
 18 19  1  0
 19 20  1  0
 20 21  1  0
 21 22  1  0
 22 23  1  0
 23 24  1  0
 24 25  2  0
 25 26  1  0
 26 27  2  0
 27 28  1  0
 28 29  2  0
 28 30  1  0
 30 31  2  0
 30 32  1  0
 26 33  1  0
 33 34  1  0
 33 35  1  0
 35 36  1  0
 35 37  2  0
 35 38  2  0
  6 39  2  0
 39 40  1  0
 40 41  2  0
 29 24  1  0
 32 12  1  0
 41  4  1  0
M  END
$$$$
