
     RDKit          3D

 41 43  0  0  0  0  0  0  0  0999 V2000
  -23.3683  -35.8013   -7.4459 C   0  0  0  0  0  0  0  0  0  0  0  0
  -22.7158  -36.7092   -8.4503 C   0  0  0  0  0  0  0  0  0  0  0  0
  -21.5650  -35.9660   -9.1147 C   0  0  0  0  0  0  0  0  0  0  0  0
  -22.2106  -37.9282   -7.7625 C   0  0  0  0  0  0  0  0  0  0  0  0
  -21.1846  -37.8573   -6.8428 C   0  0  0  0  0  0  0  0  0  0  0  0
  -20.7133  -39.0032   -6.1980 C   0  0  0  0  0  0  0  0  0  0  0  0
  -19.6000  -38.8505   -5.2061 C   0  0  0  0  0  0  0  0  0  0  0  0
  -18.4127  -39.4335   -5.7354 N   0  0  0  0  0  0  0  0  0  0  0  0
  -17.7109  -38.6518   -6.7106 C   0  0  0  0  0  0  0  0  0  0  0  0
  -16.3820  -39.3001   -7.0003 C   0  0  1  0  0  0  0  0  0  0  0  0
  -15.8718  -39.8138   -5.8037 O   0  0  0  0  0  0  0  0  0  0  0  0
  -16.4407  -40.3437   -8.0955 C   0  0  2  0  0  0  0  0  0  0  0  0
  -16.7473  -39.7124   -9.3837 C   0  0  0  0  0  0  0  0  0  0  0  0
  -15.4902  -39.5655  -10.2087 C   0  0  2  0  0  0  0  0  0  0  0  0
  -14.7525  -38.3066   -9.7573 C   0  0  0  0  0  0  0  0  0  0  0  0
  -15.8755  -39.3642  -11.6559 C   0  0  0  0  0  0  0  0  0  0  0  0
  -14.8023  -39.8099  -12.6104 C   0  0  0  0  0  0  0  0  0  0  0  0
  -14.6515  -41.2960  -12.6778 C   0  0  0  0  0  0  0  0  0  0  0  0
  -13.2381  -41.7459  -12.9271 C   0  0  0  0  0  0  0  0  0  0  0  0
  -13.2590  -43.1198  -13.5518 C   0  0  0  0  0  0  0  0  0  0  0  0
  -13.8507  -44.1580  -12.6368 C   0  0  0  0  0  0  0  0  0  0  0  0
  -12.9030  -44.6684  -11.6083 C   0  0  0  0  0  0  0  0  0  0  0  0
  -13.5505  -45.0726  -10.4562 O   0  0  0  0  0  0  0  0  0  0  0  0
  -14.7781  -44.8857   -9.8487 C   0  0  0  0  0  0  0  0  0  0  0  0
  -15.4247  -46.1216   -9.6555 C   0  0  0  0  0  0  0  0  0  0  0  0
  -16.6599  -46.2141   -9.0723 C   0  0  0  0  0  0  0  0  0  0  0  0
  -17.2234  -45.0389   -8.6907 C   0  0  0  0  0  0  0  0  0  0  0  0
  -16.6225  -43.7548   -8.8558 C   0  0  0  0  0  0  0  0  0  0  0  0
  -15.3834  -43.7068   -9.4449 C   0  0  0  0  0  0  0  0  0  0  0  0
  -17.4983  -42.6719   -8.3418 C   0  0  0  0  0  0  0  0  0  0  0  0
  -18.7889  -42.8935   -8.5246 O   0  0  0  0  0  0  0  0  0  0  0  0
  -17.2849  -41.4577   -7.7014 N   0  0  0  0  0  0  0  0  0  0  0  0
  -17.3045  -47.4641   -8.8814 N   0  0  0  0  0  0  0  0  0  0  0  0
  -17.6084  -48.2920  -10.0509 C   0  0  0  0  0  0  0  0  0  0  0  0
  -17.7346  -48.0245   -7.3199 S   0  0  0  0  0  6  0  0  0  0  0  0
  -17.1241  -49.7065   -7.1836 C   0  0  0  0  0  0  0  0  0  0  0  0
  -19.2178  -48.1016   -7.1854 O   0  0  0  0  0  0  0  0  0  0  0  0
  -17.2025  -47.1711   -6.2203 O   0  0  0  0  0  0  0  0  0  0  0  0
  -21.2828  -40.2225   -6.4861 C   0  0  0  0  0  0  0  0  0  0  0  0
  -22.3088  -40.2923   -7.4061 C   0  0  0  0  0  0  0  0  0  0  0  0
  -22.7619  -39.1431   -8.0348 C   0  0  0  0  0  0  0  0  0  0  0  0
  1  2  1  0
  2  3  1  0
  2  4  1  0
  4  5  2  0
  5  6  1  0
  6  7  1  0
  7  8  1  0
  8  9  1  0
  9 10  1  0
 10 11  1  1
 10 12  1  0
 12 13  1  6
 13 14  1  0
 14 15  1  1
 14 16  1  0
 16 17  1  0
 17 18  1  0
 18 19  1  0
 19 20  1  0
 20 21  1  0
 21 22  1  0
 22 23  1  0
 23 24  1  0
 24 25  2  0
 25 26  1  0
 26 27  2  0
 27 28  1  0
 28 29  2  0
 28 30  1  0
 30 31  2  0
 30 32  1  0
 26 33  1  0
 33 34  1  0
 33 35  1  0
 35 36  1  0
 35 37  2  0
 35 38  2  0
  6 39  2  0
 39 40  1  0
 40 41  2  0
 29 24  1  0
 32 12  1  0
 41  4  1  0
M  END
$$$$
