
     RDKit          3D

 41 43  0  0  0  0  0  0  0  0999 V2000
  -19.5903  -40.6900  -12.2868 C   0  0  0  0  0  0  0  0  0  0  0  0
  -19.9551  -39.2972  -12.7181 C   0  0  0  0  0  0  0  0  0  0  0  0
  -21.1060  -38.7977  -11.8555 C   0  0  0  0  0  0  0  0  0  0  0  0
  -18.7741  -38.4050  -12.5648 C   0  0  0  0  0  0  0  0  0  0  0  0
  -17.9469  -38.4958  -11.4643 C   0  0  0  0  0  0  0  0  0  0  0  0
  -16.8384  -37.6577  -11.3239 C   0  0  0  0  0  0  0  0  0  0  0  0
  -15.9805  -37.8163  -10.1051 C   0  0  0  0  0  0  0  0  0  0  0  0
  -16.5322  -37.0523   -9.0366 N   0  0  0  0  0  0  0  0  0  0  0  0
  -17.8078  -37.4870   -8.5482 C   0  0  0  0  0  0  0  0  0  0  0  0
  -17.6641  -37.9274   -7.1144 C   0  0  1  0  0  0  0  0  0  0  0  0
  -18.2059  -36.9345   -6.2918 O   0  0  0  0  0  0  0  0  0  0  0  0
  -18.2570  -39.2921   -6.8354 C   0  0  2  0  0  0  0  0  0  0  0  0
  -18.1248  -39.6228   -5.4122 C   0  0  0  0  0  0  0  0  0  0  0  0
  -19.4375  -39.4019   -4.6978 C   0  0  2  0  0  0  0  0  0  0  0  0
  -19.5631  -37.9198   -4.3509 C   0  0  0  0  0  0  0  0  0  0  0  0
  -19.4202  -40.1670   -3.3948 C   0  0  0  0  0  0  0  0  0  0  0  0
  -20.7986  -40.5309   -2.9162 C   0  0  0  0  0  0  0  0  0  0  0  0
  -21.4451  -41.6017   -3.7356 C   0  0  0  0  0  0  0  0  0  0  0  0
  -22.9385  -41.4578   -3.8419 C   0  0  0  0  0  0  0  0  0  0  0  0
  -23.5457  -42.8074   -4.1385 C   0  0  0  0  0  0  0  0  0  0  0  0
  -23.1040  -43.3564   -5.4684 C   0  0  0  0  0  0  0  0  0  0  0  0
  -23.8464  -42.7958   -6.6308 C   0  0  0  0  0  0  0  0  0  0  0  0
  -23.0793  -42.7765   -7.7803 O   0  0  0  0  0  0  0  0  0  0  0  0
  -21.7424  -42.8500   -8.1241 C   0  0  0  0  0  0  0  0  0  0  0  0
  -21.5146  -43.9424   -8.9829 C   0  0  0  0  0  0  0  0  0  0  0  0
  -20.2699  -44.2388   -9.4703 C   0  0  0  0  0  0  0  0  0  0  0  0
  -19.2676  -43.4126   -9.0742 C   0  0  0  0  0  0  0  0  0  0  0  0
  -19.4303  -42.2895   -8.2085 C   0  0  0  0  0  0  0  0  0  0  0  0
  -20.6949  -42.0276   -7.7426 C   0  0  0  0  0  0  0  0  0  0  0  0
  -18.1402  -41.5971   -7.9637 C   0  0  0  0  0  0  0  0  0  0  0  0
  -17.0985  -42.4092   -7.9039 O   0  0  0  0  0  0  0  0  0  0  0  0
  -17.7553  -40.2750   -7.7794 N   0  0  0  0  0  0  0  0  0  0  0  0
  -20.0493  -45.3419  -10.3355 N   0  0  0  0  0  0  0  0  0  0  0  0
  -21.1555  -45.8262  -11.1646 C   0  0  0  0  0  0  0  0  0  0  0  0
  -18.5244  -46.1182  -10.4315 S   0  0  0  0  0  6  0  0  0  0  0  0
  -17.4694  -45.0716  -11.4374 C   0  0  0  0  0  0  0  0  0  0  0  0
  -18.6462  -47.4159  -11.1563 O   0  0  0  0  0  0  0  0  0  0  0  0
  -17.9092  -46.3753   -9.0988 O   0  0  0  0  0  0  0  0  0  0  0  0
  -16.5682  -36.7263  -12.3004 C   0  0  0  0  0  0  0  0  0  0  0  0
  -17.3962  -36.6363  -13.4005 C   0  0  0  0  0  0  0  0  0  0  0  0
  -18.4911  -37.4776  -13.5208 C   0  0  0  0  0  0  0  0  0  0  0  0
  1  2  1  0
  2  3  1  0
  2  4  1  0
  4  5  2  0
  5  6  1  0
  6  7  1  0
  7  8  1  0
  8  9  1  0
  9 10  1  0
 10 11  1  1
 10 12  1  0
 12 13  1  1
 13 14  1  0
 14 15  1  1
 14 16  1  0
 16 17  1  0
 17 18  1  0
 18 19  1  0
 19 20  1  0
 20 21  1  0
 21 22  1  0
 22 23  1  0
 23 24  1  0
 24 25  2  0
 25 26  1  0
 26 27  2  0
 27 28  1  0
 28 29  2  0
 28 30  1  0
 30 31  2  0
 30 32  1  0
 26 33  1  0
 33 34  1  0
 33 35  1  0
 35 36  1  0
 35 37  2  0
 35 38  2  0
  6 39  2  0
 39 40  1  0
 40 41  2  0
 29 24  1  0
 32 12  1  0
 41  4  1  0
M  END
$$$$
