
     RDKit          3D

 41 43  0  0  0  0  0  0  0  0999 V2000
  -11.7088  -35.9762  -12.7941 C   0  0  0  0  0  0  0  0  0  0  0  0
  -12.6753  -36.1471  -11.6559 C   0  0  0  0  0  0  0  0  0  0  0  0
  -13.9884  -35.4655  -12.0154 C   0  0  0  0  0  0  0  0  0  0  0  0
  -12.9004  -37.5973  -11.4097 C   0  0  0  0  0  0  0  0  0  0  0  0
  -12.8382  -38.1249  -10.1364 C   0  0  0  0  0  0  0  0  0  0  0  0
  -13.0511  -39.4865   -9.9086 C   0  0  0  0  0  0  0  0  0  0  0  0
  -12.9737  -39.9891   -8.4986 C   0  0  0  0  0  0  0  0  0  0  0  0
  -13.8908  -39.2611   -7.6868 N   0  0  0  0  0  0  0  0  0  0  0  0
  -14.8986  -40.0384   -7.0275 C   0  0  0  0  0  0  0  0  0  0  0  0
  -16.2360  -39.3683   -7.2076 C   0  0  1  0  0  0  0  0  0  0  0  0
  -16.2155  -38.6602   -8.4135 O   0  0  0  0  0  0  0  0  0  0  0  0
  -17.4098  -40.3205   -7.1198 C   0  0  2  0  0  0  0  0  0  0  0  0
  -18.2766  -39.9568   -5.9935 C   0  0  0  0  0  0  0  0  0  0  0  0
  -19.4944  -39.2116   -6.4876 C   0  0  2  0  0  0  0  0  0  0  0  0
  -19.1227  -37.7436   -6.6872 C   0  0  0  0  0  0  0  0  0  0  0  0
  -20.5645  -39.2618   -5.4219 C   0  0  0  0  0  0  0  0  0  0  0  0
  -21.9521  -39.1234   -5.9849 C   0  0  0  0  0  0  0  0  0  0  0  0
  -22.4060  -40.3308   -6.7412 C   0  0  0  0  0  0  0  0  0  0  0  0
  -23.3147  -40.0098   -7.8961 C   0  0  0  0  0  0  0  0  0  0  0  0
  -24.1632  -41.2184   -8.2087 C   0  0  0  0  0  0  0  0  0  0  0  0
  -23.3421  -42.3945   -8.6644 C   0  0  0  0  0  0  0  0  0  0  0  0
  -22.9443  -42.3353  -10.0978 C   0  0  0  0  0  0  0  0  0  0  0  0
  -21.7494  -42.9878  -10.3356 O   0  0  0  0  0  0  0  0  0  0  0  0
  -20.6611  -43.4345   -9.6096 C   0  0  0  0  0  0  0  0  0  0  0  0
  -20.4974  -44.8236   -9.7728 C   0  0  0  0  0  0  0  0  0  0  0  0
  -19.4897  -45.5157   -9.1564 C   0  0  0  0  0  0  0  0  0  0  0  0
  -18.6564  -44.7788   -8.3774 C   0  0  0  0  0  0  0  0  0  0  0  0
  -18.7655  -43.3706   -8.1710 C   0  0  0  0  0  0  0  0  0  0  0  0
  -19.7900  -42.7151   -8.8079 C   0  0  0  0  0  0  0  0  0  0  0  0
  -17.7061  -42.8685   -7.2603 C   0  0  0  0  0  0  0  0  0  0  0  0
  -17.3793  -43.7154   -6.2990 O   0  0  0  0  0  0  0  0  0  0  0  0
  -16.9595  -41.7001   -7.1731 N   0  0  0  0  0  0  0  0  0  0  0  0
  -19.3320  -46.9159   -9.3264 N   0  0  0  0  0  0  0  0  0  0  0  0
  -19.4080  -47.4801  -10.6760 C   0  0  0  0  0  0  0  0  0  0  0  0
  -19.0568  -47.9580   -7.9939 S   0  0  0  0  0  6  0  0  0  0  0  0
  -20.2354  -49.3039   -8.1330 C   0  0  0  0  0  0  0  0  0  0  0  0
  -19.3649  -47.2576   -6.7138 O   0  0  0  0  0  0  0  0  0  0  0  0
  -17.6603  -48.4739   -7.9280 O   0  0  0  0  0  0  0  0  0  0  0  0
  -13.3273  -40.3140  -10.9729 C   0  0  0  0  0  0  0  0  0  0  0  0
  -13.3892  -39.7853  -12.2459 C   0  0  0  0  0  0  0  0  0  0  0  0
  -13.1749  -38.4313  -12.4505 C   0  0  0  0  0  0  0  0  0  0  0  0
  1  2  1  0
  2  3  1  0
  2  4  1  0
  4  5  2  0
  5  6  1  0
  6  7  1  0
  7  8  1  0
  8  9  1  0
  9 10  1  0
 10 11  1  6
 10 12  1  0
 12 13  1  1
 13 14  1  0
 14 15  1  1
 14 16  1  0
 16 17  1  0
 17 18  1  0
 18 19  1  0
 19 20  1  0
 20 21  1  0
 21 22  1  0
 22 23  1  0
 23 24  1  0
 24 25  2  0
 25 26  1  0
 26 27  2  0
 27 28  1  0
 28 29  2  0
 28 30  1  0
 30 31  2  0
 30 32  1  0
 26 33  1  0
 33 34  1  0
 33 35  1  0
 35 36  1  0
 35 37  2  0
 35 38  2  0
  6 39  2  0
 39 40  1  0
 40 41  2  0
 29 24  1  0
 32 12  1  0
 41  4  1  0
M  END
$$$$
