
     RDKit          3D

 41 43  0  0  0  0  0  0  0  0999 V2000
  -15.0166  -45.1680  -10.4212 C   0  0  0  0  0  0  0  0  0  0  0  0
  -13.6932  -44.5650  -10.8009 C   0  0  0  0  0  0  0  0  0  0  0  0
  -13.1124  -45.3445  -11.9727 C   0  0  0  0  0  0  0  0  0  0  0  0
  -13.8881  -43.1391  -11.1791 C   0  0  0  0  0  0  0  0  0  0  0  0
  -13.4841  -42.1163  -10.3460 C   0  0  0  0  0  0  0  0  0  0  0  0
  -13.6674  -40.7788  -10.7044 C   0  0  0  0  0  0  0  0  0  0  0  0
  -13.1987  -39.7199   -9.7527 C   0  0  0  0  0  0  0  0  0  0  0  0
  -14.3095  -38.9261   -9.3452 N   0  0  0  0  0  0  0  0  0  0  0  0
  -14.9949  -39.3652   -8.1655 C   0  0  0  0  0  0  0  0  0  0  0  0
  -16.3996  -38.8203   -8.1784 C   0  0  1  0  0  0  0  0  0  0  0  0
  -16.7090  -38.4298   -9.4853 O   0  0  0  0  0  0  0  0  0  0  0  0
  -17.4267  -39.7731   -7.6045 C   0  0  2  0  0  0  0  0  0  0  0  0
  -18.0638  -39.1825   -6.4224 C   0  0  0  0  0  0  0  0  0  0  0  0
  -19.4271  -38.6372   -6.7781 C   0  0  2  0  0  0  0  0  0  0  0  0
  -19.2546  -37.2484   -7.3900 C   0  0  0  0  0  0  0  0  0  0  0  0
  -20.2336  -38.4714   -5.5111 C   0  0  0  0  0  0  0  0  0  0  0  0
  -21.7164  -38.5381   -5.7532 C   0  0  0  0  0  0  0  0  0  0  0  0
  -22.1994  -39.9136   -6.0856 C   0  0  0  0  0  0  0  0  0  0  0  0
  -23.3617  -39.9279   -7.0402 C   0  0  0  0  0  0  0  0  0  0  0  0
  -24.1330  -41.2129   -6.8614 C   0  0  0  0  0  0  0  0  0  0  0  0
  -23.3159  -42.4270   -7.2125 C   0  0  0  0  0  0  0  0  0  0  0  0
  -23.2423  -42.7048   -8.6733 C   0  0  0  0  0  0  0  0  0  0  0  0
  -22.0673  -43.3416   -9.0253 O   0  0  0  0  0  0  0  0  0  0  0  0
  -20.8098  -43.5466   -8.4890 C   0  0  0  0  0  0  0  0  0  0  0  0
  -20.5476  -44.9243   -8.3622 C   0  0  0  0  0  0  0  0  0  0  0  0
  -19.3675  -45.3976   -7.8544 C   0  0  0  0  0  0  0  0  0  0  0  0
  -18.4642  -44.4550   -7.4805 C   0  0  0  0  0  0  0  0  0  0  0  0
  -18.6660  -43.0457   -7.5835 C   0  0  0  0  0  0  0  0  0  0  0  0
  -19.8631  -42.6137   -8.0983 C   0  0  0  0  0  0  0  0  0  0  0  0
  -17.4914  -42.2879   -7.0836 C   0  0  0  0  0  0  0  0  0  0  0  0
  -16.8837  -42.8566   -6.0563 O   0  0  0  0  0  0  0  0  0  0  0  0
  -16.8634  -41.1018   -7.4425 N   0  0  0  0  0  0  0  0  0  0  0  0
  -19.1116  -46.7880   -7.7302 N   0  0  0  0  0  0  0  0  0  0  0  0
  -20.2308  -47.7276   -7.8306 C   0  0  0  0  0  0  0  0  0  0  0  0
  -17.5292  -47.3906   -7.4653 S   0  0  0  0  0  6  0  0  0  0  0  0
  -17.3930  -47.7439   -5.7112 C   0  0  0  0  0  0  0  0  0  0  0  0
  -16.5153  -46.3386   -7.7641 O   0  0  0  0  0  0  0  0  0  0  0  0
  -17.2143  -48.5977   -8.2805 O   0  0  0  0  0  0  0  0  0  0  0  0
  -14.2612  -40.4779  -11.9090 C   0  0  0  0  0  0  0  0  0  0  0  0
  -14.6649  -41.5016  -12.7414 C   0  0  0  0  0  0  0  0  0  0  0  0
  -14.4737  -42.8224  -12.3670 C   0  0  0  0  0  0  0  0  0  0  0  0
  1  2  1  0
  2  3  1  0
  2  4  1  0
  4  5  2  0
  5  6  1  0
  6  7  1  0
  7  8  1  0
  8  9  1  0
  9 10  1  0
 10 11  1  6
 10 12  1  0
 12 13  1  1
 13 14  1  0
 14 15  1  1
 14 16  1  0
 16 17  1  0
 17 18  1  0
 18 19  1  0
 19 20  1  0
 20 21  1  0
 21 22  1  0
 22 23  1  0
 23 24  1  0
 24 25  2  0
 25 26  1  0
 26 27  2  0
 27 28  1  0
 28 29  2  0
 28 30  1  0
 30 31  2  0
 30 32  1  0
 26 33  1  0
 33 34  1  0
 33 35  1  0
 35 36  1  0
 35 37  2  0
 35 38  2  0
  6 39  2  0
 39 40  1  0
 40 41  2  0
 29 24  1  0
 32 12  1  0
 41  4  1  0
M  END
$$$$
