
     RDKit          3D

 41 43  0  0  0  0  0  0  0  0999 V2000
  -11.4780  -36.4662  -12.0839 C   0  0  0  0  0  0  0  0  0  0  0  0
  -12.9542  -36.5754  -11.8227 C   0  0  0  0  0  0  0  0  0  0  0  0
  -13.7100  -36.1960  -13.0888 C   0  0  0  0  0  0  0  0  0  0  0  0
  -13.2857  -37.9707  -11.4259 C   0  0  0  0  0  0  0  0  0  0  0  0
  -13.3191  -38.3485  -10.0993 C   0  0  0  0  0  0  0  0  0  0  0  0
  -13.6318  -39.6588   -9.7300 C   0  0  0  0  0  0  0  0  0  0  0  0
  -13.6550  -39.9966   -8.2699 C   0  0  0  0  0  0  0  0  0  0  0  0
  -15.0014  -39.9868   -7.8043 N   0  0  0  0  0  0  0  0  0  0  0  0
  -15.9669  -39.4043   -8.6892 C   0  0  0  0  0  0  0  0  0  0  0  0
  -17.0934  -38.8207   -7.8765 C   0  0  1  0  0  0  0  0  0  0  0  0
  -17.6598  -37.7669   -8.6009 O   0  0  0  0  0  0  0  0  0  0  0  0
  -18.1247  -39.8420   -7.4457 C   0  0  2  0  0  0  0  0  0  0  0  0
  -18.9455  -39.3066   -6.3540 C   0  0  0  0  0  0  0  0  0  0  0  0
  -20.2825  -38.8415   -6.8819 C   0  0  2  0  0  0  0  0  0  0  0  0
  -20.1192  -37.4371   -7.4598 C   0  0  0  0  0  0  0  0  0  0  0  0
  -21.2554  -38.7415   -5.7300 C   0  0  0  0  0  0  0  0  0  0  0  0
  -22.6871  -38.8960   -6.1636 C   0  0  0  0  0  0  0  0  0  0  0  0
  -23.0360  -40.2943   -6.5624 C   0  0  0  0  0  0  0  0  0  0  0  0
  -24.0615  -40.3678   -7.6604 C   0  0  0  0  0  0  0  0  0  0  0  0
  -24.7676  -41.6999   -7.5896 C   0  0  0  0  0  0  0  0  0  0  0  0
  -23.8376  -42.8570   -7.8367 C   0  0  0  0  0  0  0  0  0  0  0  0
  -23.5578  -43.1112   -9.2767 C   0  0  0  0  0  0  0  0  0  0  0  0
  -22.3095  -43.6702   -9.4754 O   0  0  0  0  0  0  0  0  0  0  0  0
  -21.1220  -43.8045   -8.7807 C   0  0  0  0  0  0  0  0  0  0  0  0
  -20.7929  -45.1650   -8.6271 C   0  0  0  0  0  0  0  0  0  0  0  0
  -19.6615  -45.5713   -7.9719 C   0  0  0  0  0  0  0  0  0  0  0  0
  -18.8750  -44.5799   -7.4793 C   0  0  0  0  0  0  0  0  0  0  0  0
  -19.1493  -43.1845   -7.6012 C   0  0  0  0  0  0  0  0  0  0  0  0
  -20.2942  -42.8203   -8.2658 C   0  0  0  0  0  0  0  0  0  0  0  0
  -18.0993  -42.3624   -6.9491 C   0  0  0  0  0  0  0  0  0  0  0  0
  -17.5957  -42.9057   -5.8539 O   0  0  0  0  0  0  0  0  0  0  0  0
  -17.5053  -41.1355   -7.2177 N   0  0  0  0  0  0  0  0  0  0  0  0
  -19.3374  -46.9449   -7.8218 N   0  0  0  0  0  0  0  0  0  0  0  0
  -20.0849  -47.9393   -8.5951 C   0  0  0  0  0  0  0  0  0  0  0  0
  -18.0970  -47.4650   -6.7597 S   0  0  0  0  0  6  0  0  0  0  0  0
  -18.9035  -48.0958   -5.2860 C   0  0  0  0  0  0  0  0  0  0  0  0
  -17.2664  -46.3059   -6.3231 O   0  0  0  0  0  0  0  0  0  0  0  0
  -17.1995  -48.4921   -7.3600 O   0  0  0  0  0  0  0  0  0  0  0  0
  -13.9109  -40.5872  -10.7068 C   0  0  0  0  0  0  0  0  0  0  0  0
  -13.8772  -40.2084  -12.0332 C   0  0  0  0  0  0  0  0  0  0  0  0
  -13.5647  -38.9029  -12.3785 C   0  0  0  0  0  0  0  0  0  0  0  0
  1  2  1  0
  2  3  1  0
  2  4  1  0
  4  5  2  0
  5  6  1  0
  6  7  1  0
  7  8  1  0
  8  9  1  0
  9 10  1  0
 10 11  1  6
 10 12  1  0
 12 13  1  1
 13 14  1  0
 14 15  1  1
 14 16  1  0
 16 17  1  0
 17 18  1  0
 18 19  1  0
 19 20  1  0
 20 21  1  0
 21 22  1  0
 22 23  1  0
 23 24  1  0
 24 25  2  0
 25 26  1  0
 26 27  2  0
 27 28  1  0
 28 29  2  0
 28 30  1  0
 30 31  2  0
 30 32  1  0
 26 33  1  0
 33 34  1  0
 33 35  1  0
 35 36  1  0
 35 37  2  0
 35 38  2  0
  6 39  2  0
 39 40  1  0
 40 41  2  0
 29 24  1  0
 32 12  1  0
 41  4  1  0
M  END
$$$$
