
     RDKit          3D

 41 43  0  0  0  0  0  0  0  0999 V2000
  -18.6618  -34.5777  -11.2778 C   0  0  0  0  0  0  0  0  0  0  0  0
  -17.5936  -35.5726  -11.6359 C   0  0  0  0  0  0  0  0  0  0  0  0
  -16.7378  -34.9978  -12.7563 C   0  0  0  0  0  0  0  0  0  0  0  0
  -16.7536  -35.8508  -10.4396 C   0  0  0  0  0  0  0  0  0  0  0  0
  -17.3235  -36.1346   -9.2155 C   0  0  0  0  0  0  0  0  0  0  0  0
  -16.5321  -36.3963   -8.0947 C   0  0  0  0  0  0  0  0  0  0  0  0
  -17.2195  -36.7027   -6.7984 C   0  0  0  0  0  0  0  0  0  0  0  0
  -16.8743  -38.0204   -6.3808 N   0  0  0  0  0  0  0  0  0  0  0  0
  -15.6245  -38.5255   -6.8681 C   0  0  0  0  0  0  0  0  0  0  0  0
  -15.8524  -39.2212   -8.1851 C   0  0  1  0  0  0  0  0  0  0  0  0
  -14.8395  -40.1689   -8.3642 O   0  0  0  0  0  0  0  0  0  0  0  0
  -17.2345  -39.8235   -8.3232 C   0  0  2  0  0  0  0  0  0  0  0  0
  -17.8951  -39.3097   -9.5280 C   0  0  0  0  0  0  0  0  0  0  0  0
  -17.8284  -40.3309  -10.6394 C   0  0  2  0  0  0  0  0  0  0  0  0
  -16.4688  -40.2190  -11.3264 C   0  0  0  0  0  0  0  0  0  0  0  0
  -18.8806  -39.9997  -11.6721 C   0  0  0  0  0  0  0  0  0  0  0  0
  -19.3248  -41.2039  -12.4559 C   0  0  0  0  0  0  0  0  0  0  0  0
  -20.1601  -42.1532  -11.6578 C   0  0  0  0  0  0  0  0  0  0  0  0
  -19.9706  -43.5937  -12.0471 C   0  0  0  0  0  0  0  0  0  0  0  0
  -21.2013  -44.3769  -11.6597 C   0  0  0  0  0  0  0  0  0  0  0  0
  -21.4266  -44.3940  -10.1717 C   0  0  0  0  0  0  0  0  0  0  0  0
  -20.5943  -45.3923   -9.4455 C   0  0  0  0  0  0  0  0  0  0  0  0
  -20.3157  -44.9970   -8.1508 O   0  0  0  0  0  0  0  0  0  0  0  0
  -20.3276  -43.8313   -7.4079 C   0  0  0  0  0  0  0  0  0  0  0  0
  -21.1890  -43.9616   -6.3016 C   0  0  0  0  0  0  0  0  0  0  0  0
  -21.3818  -42.9453   -5.4047 C   0  0  0  0  0  0  0  0  0  0  0  0
  -20.6897  -41.8026   -5.6480 C   0  0  0  0  0  0  0  0  0  0  0  0
  -19.8012  -41.6055   -6.7476 C   0  0  0  0  0  0  0  0  0  0  0  0
  -19.6364  -42.6501   -7.6231 C   0  0  0  0  0  0  0  0  0  0  0  0
  -19.2080  -40.2448   -6.7334 C   0  0  0  0  0  0  0  0  0  0  0  0
  -20.0281  -39.3066   -6.2913 O   0  0  0  0  0  0  0  0  0  0  0  0
  -17.9737  -39.7085   -7.0785 N   0  0  0  0  0  0  0  0  0  0  0  0
  -22.2520  -43.0854   -4.2922 N   0  0  0  0  0  0  0  0  0  0  0  0
  -23.6992  -43.0812   -4.5180 C   0  0  0  0  0  0  0  0  0  0  0  0
  -21.6506  -43.2577   -2.6967 S   0  0  0  0  0  6  0  0  0  0  0  0
  -22.6480  -42.1980   -1.6467 C   0  0  0  0  0  0  0  0  0  0  0  0
  -20.2532  -42.7439   -2.6093 O   0  0  0  0  0  0  0  0  0  0  0  0
  -21.6695  -44.6656   -2.2086 O   0  0  0  0  0  0  0  0  0  0  0  0
  -15.1614  -36.3702   -8.2149 C   0  0  0  0  0  0  0  0  0  0  0  0
  -14.5925  -36.0863   -9.4395 C   0  0  0  0  0  0  0  0  0  0  0  0
  -15.3957  -35.8294  -10.5396 C   0  0  0  0  0  0  0  0  0  0  0  0
  1  2  1  0
  2  3  1  0
  2  4  1  0
  4  5  2  0
  5  6  1  0
  6  7  1  0
  7  8  1  0
  8  9  1  0
  9 10  1  0
 10 11  1  1
 10 12  1  0
 12 13  1  6
 13 14  1  0
 14 15  1  6
 14 16  1  0
 16 17  1  0
 17 18  1  0
 18 19  1  0
 19 20  1  0
 20 21  1  0
 21 22  1  0
 22 23  1  0
 23 24  1  0
 24 25  2  0
 25 26  1  0
 26 27  2  0
 27 28  1  0
 28 29  2  0
 28 30  1  0
 30 31  2  0
 30 32  1  0
 26 33  1  0
 33 34  1  0
 33 35  1  0
 35 36  1  0
 35 37  2  0
 35 38  2  0
  6 39  2  0
 39 40  1  0
 40 41  2  0
 29 24  1  0
 32 12  1  0
 41  4  1  0
M  END
$$$$
