
     RDKit          3D

 41 43  0  0  0  0  0  0  0  0999 V2000
  -11.3174  -36.3911  -11.4391 C   0  0  0  0  0  0  0  0  0  0  0  0
  -10.9941  -37.7653  -11.9548 C   0  0  0  0  0  0  0  0  0  0  0  0
   -9.9014  -38.3749  -11.0872 C   0  0  0  0  0  0  0  0  0  0  0  0
  -12.2168  -38.6121  -11.9106 C   0  0  0  0  0  0  0  0  0  0  0  0
  -13.4007  -38.1326  -11.3892 C   0  0  0  0  0  0  0  0  0  0  0  0
  -14.5471  -38.9298  -11.3501 C   0  0  0  0  0  0  0  0  0  0  0  0
  -15.7997  -38.3410  -10.7748 C   0  0  0  0  0  0  0  0  0  0  0  0
  -16.8958  -38.6261  -11.6393 N   0  0  0  0  0  0  0  0  0  0  0  0
  -17.6971  -39.7599  -11.2830 C   0  0  0  0  0  0  0  0  0  0  0  0
  -18.8667  -39.2973  -10.4534 C   0  0  1  0  0  0  0  0  0  0  0  0
  -20.0044  -39.2792  -11.2668 O   0  0  0  0  0  0  0  0  0  0  0  0
  -19.0750  -40.1072   -9.1913 C   0  0  2  0  0  0  0  0  0  0  0  0
  -19.0192  -39.2354   -8.0127 C   0  0  0  0  0  0  0  0  0  0  0  0
  -20.4137  -38.9360   -7.5148 C   0  0  2  0  0  0  0  0  0  0  0  0
  -20.9949  -37.7925   -8.3440 C   0  0  0  0  0  0  0  0  0  0  0  0
  -20.3298  -38.4547   -6.0848 C   0  0  0  0  0  0  0  0  0  0  0  0
  -21.5935  -38.7104   -5.3105 C   0  0  0  0  0  0  0  0  0  0  0  0
  -21.8096  -40.1556   -4.9930 C   0  0  0  0  0  0  0  0  0  0  0  0
  -23.2596  -40.5544   -4.9657 C   0  0  0  0  0  0  0  0  0  0  0  0
  -23.4193  -41.7800   -4.0993 C   0  0  0  0  0  0  0  0  0  0  0  0
  -22.6894  -42.9741   -4.6530 C   0  0  0  0  0  0  0  0  0  0  0  0
  -23.4214  -43.6794   -5.7408 C   0  0  0  0  0  0  0  0  0  0  0  0
  -22.5643  -44.2976   -6.6315 O   0  0  0  0  0  0  0  0  0  0  0  0
  -21.2313  -44.2273   -6.9911 C   0  0  0  0  0  0  0  0  0  0  0  0
  -20.6047  -45.4743   -6.8034 C   0  0  0  0  0  0  0  0  0  0  0  0
  -19.2797  -45.6734   -7.0846 C   0  0  0  0  0  0  0  0  0  0  0  0
  -18.6064  -44.5927   -7.5568 C   0  0  0  0  0  0  0  0  0  0  0  0
  -19.1806  -43.3036   -7.7710 C   0  0  0  0  0  0  0  0  0  0  0  0
  -20.5124  -43.1472   -7.4765 C   0  0  0  0  0  0  0  0  0  0  0  0
  -18.1780  -42.3379   -8.2866 C   0  0  0  0  0  0  0  0  0  0  0  0
  -16.9624  -42.5140   -7.7970 O   0  0  0  0  0  0  0  0  0  0  0  0
  -18.2090  -41.2728   -9.1780 N   0  0  0  0  0  0  0  0  0  0  0  0
  -18.6561  -46.9338   -6.8925 N   0  0  0  0  0  0  0  0  0  0  0  0
  -19.1572  -47.8207   -5.8399 C   0  0  0  0  0  0  0  0  0  0  0  0
  -17.3345  -47.4396   -7.8593 S   0  0  0  0  0  6  0  0  0  0  0  0
  -16.3587  -48.5660   -6.8598 C   0  0  0  0  0  0  0  0  0  0  0  0
  -16.4495  -46.2821   -8.1769 O   0  0  0  0  0  0  0  0  0  0  0  0
  -17.7515  -48.0823   -9.1375 O   0  0  0  0  0  0  0  0  0  0  0  0
  -14.4930  -40.2146  -11.8402 C   0  0  0  0  0  0  0  0  0  0  0  0
  -13.3085  -40.6932  -12.3614 C   0  0  0  0  0  0  0  0  0  0  0  0
  -12.1822  -39.8859  -12.3909 C   0  0  0  0  0  0  0  0  0  0  0  0
  1  2  1  0
  2  3  1  0
  2  4  1  0
  4  5  2  0
  5  6  1  0
  6  7  1  0
  7  8  1  0
  8  9  1  0
  9 10  1  0
 10 11  1  6
 10 12  1  0
 12 13  1  1
 13 14  1  0
 14 15  1  6
 14 16  1  0
 16 17  1  0
 17 18  1  0
 18 19  1  0
 19 20  1  0
 20 21  1  0
 21 22  1  0
 22 23  1  0
 23 24  1  0
 24 25  2  0
 25 26  1  0
 26 27  2  0
 27 28  1  0
 28 29  2  0
 28 30  1  0
 30 31  2  0
 30 32  1  0
 26 33  1  0
 33 34  1  0
 33 35  1  0
 35 36  1  0
 35 37  2  0
 35 38  2  0
  6 39  2  0
 39 40  1  0
 40 41  2  0
 29 24  1  0
 32 12  1  0
 41  4  1  0
M  END
$$$$
