
     RDKit          3D

 41 43  0  0  0  0  0  0  0  0999 V2000
  -12.0993  -42.1369  -13.3764 C   0  0  0  0  0  0  0  0  0  0  0  0
  -13.4439  -41.8105  -12.7893 C   0  0  0  0  0  0  0  0  0  0  0  0
  -14.4876  -42.7366  -13.3984 C   0  0  0  0  0  0  0  0  0  0  0  0
  -13.3973  -41.9902  -11.3129 C   0  0  0  0  0  0  0  0  0  0  0  0
  -13.1582  -40.9248  -10.4697 C   0  0  0  0  0  0  0  0  0  0  0  0
  -13.1162  -41.0966   -9.0841 C   0  0  0  0  0  0  0  0  0  0  0  0
  -12.8572  -39.8933   -8.2288 C   0  0  0  0  0  0  0  0  0  0  0  0
  -14.0589  -39.5223   -7.5593 N   0  0  0  0  0  0  0  0  0  0  0  0
  -15.2797  -39.9333   -8.1881 C   0  0  0  0  0  0  0  0  0  0  0  0
  -16.3891  -39.0044   -7.7678 C   0  0  1  0  0  0  0  0  0  0  0  0
  -16.5224  -38.0083   -8.7405 O   0  0  0  0  0  0  0  0  0  0  0  0
  -17.6981  -39.7102   -7.4843 C   0  0  2  0  0  0  0  0  0  0  0  0
  -18.6115  -38.8173   -6.7627 C   0  0  0  0  0  0  0  0  0  0  0  0
  -19.6416  -38.2446   -7.7079 C   0  0  2  0  0  0  0  0  0  0  0  0
  -19.0295  -37.0475   -8.4325 C   0  0  0  0  0  0  0  0  0  0  0  0
  -20.8121  -37.7301   -6.9025 C   0  0  0  0  0  0  0  0  0  0  0  0
  -22.0954  -37.7158   -7.6865 C   0  0  0  0  0  0  0  0  0  0  0  0
  -22.6483  -39.0818   -7.9398 C   0  0  0  0  0  0  0  0  0  0  0  0
  -23.3710  -39.2034   -9.2533 C   0  0  0  0  0  0  0  0  0  0  0  0
  -24.3581  -40.3424   -9.1713 C   0  0  0  0  0  0  0  0  0  0  0  0
  -23.6849  -41.6723   -8.9638 C   0  0  0  0  0  0  0  0  0  0  0  0
  -23.1351  -42.2729  -10.2103 C   0  0  0  0  0  0  0  0  0  0  0  0
  -22.0367  -43.0745   -9.9633 O   0  0  0  0  0  0  0  0  0  0  0  0
  -21.1120  -43.2672   -8.9540 C   0  0  0  0  0  0  0  0  0  0  0  0
  -21.1481  -44.6002   -8.5015 C   0  0  0  0  0  0  0  0  0  0  0  0
  -20.3290  -45.0527   -7.5021 C   0  0  0  0  0  0  0  0  0  0  0  0
  -19.4782  -44.1354   -6.9740 C   0  0  0  0  0  0  0  0  0  0  0  0
  -19.3900  -42.7719   -7.3867 C   0  0  0  0  0  0  0  0  0  0  0  0
  -20.2292  -42.3595   -8.3921 C   0  0  0  0  0  0  0  0  0  0  0  0
  -18.3670  -42.0304   -6.6075 C   0  0  0  0  0  0  0  0  0  0  0  0
  -18.2768  -42.4090   -5.3438 O   0  0  0  0  0  0  0  0  0  0  0  0
  -17.4626  -41.0147   -6.8913 N   0  0  0  0  0  0  0  0  0  0  0  0
  -20.3719  -46.3981   -7.0523 N   0  0  0  0  0  0  0  0  0  0  0  0
  -21.6490  -47.1150   -7.0786 C   0  0  0  0  0  0  0  0  0  0  0  0
  -18.9695  -47.1998   -6.4801 S   0  0  0  0  0  6  0  0  0  0  0  0
  -17.9467  -47.5470   -7.9132 C   0  0  0  0  0  0  0  0  0  0  0  0
  -19.3302  -48.5207   -5.8890 O   0  0  0  0  0  0  0  0  0  0  0  0
  -18.2159  -46.4147   -5.4621 O   0  0  0  0  0  0  0  0  0  0  0  0
  -13.3169  -42.3502   -8.5529 C   0  0  0  0  0  0  0  0  0  0  0  0
  -13.5560  -43.4151   -9.3971 C   0  0  0  0  0  0  0  0  0  0  0  0
  -13.5937  -43.2232  -10.7693 C   0  0  0  0  0  0  0  0  0  0  0  0
  1  2  1  0
  2  3  1  0
  2  4  1  0
  4  5  2  0
  5  6  1  0
  6  7  1  0
  7  8  1  0
  8  9  1  0
  9 10  1  0
 10 11  1  6
 10 12  1  0
 12 13  1  1
 13 14  1  0
 14 15  1  1
 14 16  1  0
 16 17  1  0
 17 18  1  0
 18 19  1  0
 19 20  1  0
 20 21  1  0
 21 22  1  0
 22 23  1  0
 23 24  1  0
 24 25  2  0
 25 26  1  0
 26 27  2  0
 27 28  1  0
 28 29  2  0
 28 30  1  0
 30 31  2  0
 30 32  1  0
 26 33  1  0
 33 34  1  0
 33 35  1  0
 35 36  1  0
 35 37  2  0
 35 38  2  0
  6 39  2  0
 39 40  1  0
 40 41  2  0
 29 24  1  0
 32 12  1  0
 41  4  1  0
M  END
$$$$
