
     RDKit          3D

 41 43  0  0  0  0  0  0  0  0999 V2000
  -20.7576  -37.1996  -10.9891 C   0  0  0  0  0  0  0  0  0  0  0  0
  -20.6717  -36.5054   -9.6588 C   0  0  0  0  0  0  0  0  0  0  0  0
  -21.7526  -35.4353   -9.5886 C   0  0  0  0  0  0  0  0  0  0  0  0
  -20.8617  -37.4991   -8.5676 C   0  0  0  0  0  0  0  0  0  0  0  0
  -19.8474  -37.7874   -7.6780 C   0  0  0  0  0  0  0  0  0  0  0  0
  -20.0293  -38.7199   -6.6540 C   0  0  0  0  0  0  0  0  0  0  0  0
  -18.8854  -38.9790   -5.7206 C   0  0  0  0  0  0  0  0  0  0  0  0
  -17.8115  -38.0965   -6.0335 N   0  0  0  0  0  0  0  0  0  0  0  0
  -17.3018  -38.1784   -7.3707 C   0  0  0  0  0  0  0  0  0  0  0  0
  -16.0414  -39.0041   -7.3694 C   0  0  1  0  0  0  0  0  0  0  0  0
  -15.7626  -39.3810   -6.0517 O   0  0  0  0  0  0  0  0  0  0  0  0
  -16.0911  -40.1906   -8.3086 C   0  0  2  0  0  0  0  0  0  0  0  0
  -15.9814  -39.7419   -9.7010 C   0  0  0  0  0  0  0  0  0  0  0  0
  -14.5782  -39.9638  -10.2151 C   0  0  2  0  0  0  0  0  0  0  0  0
  -13.7005  -38.7991   -9.7613 C   0  0  0  0  0  0  0  0  0  0  0  0
  -14.6019  -39.9448  -11.7258 C   0  0  0  0  0  0  0  0  0  0  0  0
  -13.4731  -40.7302  -12.3346 C   0  0  0  0  0  0  0  0  0  0  0  0
  -13.6309  -42.2090  -12.1789 C   0  0  0  0  0  0  0  0  0  0  0  0
  -12.3250  -42.9398  -12.0269 C   0  0  0  0  0  0  0  0  0  0  0  0
  -12.5068  -44.3734  -12.4627 C   0  0  0  0  0  0  0  0  0  0  0  0
  -13.4828  -45.1190  -11.5929 C   0  0  0  0  0  0  0  0  0  0  0  0
  -12.9006  -45.6091  -10.3133 C   0  0  0  0  0  0  0  0  0  0  0  0
  -13.8446  -45.6900   -9.3072 O   0  0  0  0  0  0  0  0  0  0  0  0
  -15.1034  -45.1866   -9.0371 C   0  0  0  0  0  0  0  0  0  0  0  0
  -16.0236  -46.2363   -8.8511 C   0  0  0  0  0  0  0  0  0  0  0  0
  -17.3440  -46.0065   -8.5715 C   0  0  0  0  0  0  0  0  0  0  0  0
  -17.7118  -44.7021   -8.4841 C   0  0  0  0  0  0  0  0  0  0  0  0
  -16.8310  -43.5928   -8.6599 C   0  0  0  0  0  0  0  0  0  0  0  0
  -15.5150  -43.8676   -8.9387 C   0  0  0  0  0  0  0  0  0  0  0  0
  -17.5441  -42.2998   -8.5078 C   0  0  0  0  0  0  0  0  0  0  0  0
  -18.7853  -42.3148   -8.9633 O   0  0  0  0  0  0  0  0  0  0  0  0
  -17.2158  -41.0526   -7.9912 N   0  0  0  0  0  0  0  0  0  0  0  0
  -18.2646  -47.0705   -8.3854 N   0  0  0  0  0  0  0  0  0  0  0  0
  -19.0037  -47.5804   -9.5427 C   0  0  0  0  0  0  0  0  0  0  0  0
  -18.5313  -47.7692   -6.8434 S   0  0  0  0  0  6  0  0  0  0  0  0
  -20.2475  -47.4591   -6.4206 C   0  0  0  0  0  0  0  0  0  0  0  0
  -17.7099  -47.0761   -5.8094 O   0  0  0  0  0  0  0  0  0  0  0  0
  -18.2229  -49.2263   -6.7954 O   0  0  0  0  0  0  0  0  0  0  0  0
  -21.2410  -39.3609   -6.5319 C   0  0  0  0  0  0  0  0  0  0  0  0
  -22.2548  -39.0717   -7.4222 C   0  0  0  0  0  0  0  0  0  0  0  0
  -22.0538  -38.1430   -8.4313 C   0  0  0  0  0  0  0  0  0  0  0  0
  1  2  1  0
  2  3  1  0
  2  4  1  0
  4  5  2  0
  5  6  1  0
  6  7  1  0
  7  8  1  0
  8  9  1  0
  9 10  1  0
 10 11  1  1
 10 12  1  0
 12 13  1  6
 13 14  1  0
 14 15  1  1
 14 16  1  0
 16 17  1  0
 17 18  1  0
 18 19  1  0
 19 20  1  0
 20 21  1  0
 21 22  1  0
 22 23  1  0
 23 24  1  0
 24 25  2  0
 25 26  1  0
 26 27  2  0
 27 28  1  0
 28 29  2  0
 28 30  1  0
 30 31  2  0
 30 32  1  0
 26 33  1  0
 33 34  1  0
 33 35  1  0
 35 36  1  0
 35 37  2  0
 35 38  2  0
  6 39  2  0
 39 40  1  0
 40 41  2  0
 29 24  1  0
 32 12  1  0
 41  4  1  0
M  END
$$$$
