
     RDKit          3D

 41 43  0  0  0  0  0  0  0  0999 V2000
  -13.7764  -41.2770  -14.5051 C   0  0  0  0  0  0  0  0  0  0  0  0
  -12.9927  -41.3030  -13.2228 C   0  0  0  0  0  0  0  0  0  0  0  0
  -11.5263  -41.5568  -13.5443 C   0  0  0  0  0  0  0  0  0  0  0  0
  -13.1462  -39.9997  -12.5212 C   0  0  0  0  0  0  0  0  0  0  0  0
  -13.1503  -39.9250  -11.1436 C   0  0  0  0  0  0  0  0  0  0  0  0
  -13.2935  -38.6999  -10.4880 C   0  0  0  0  0  0  0  0  0  0  0  0
  -13.2832  -38.6933   -8.9891 C   0  0  0  0  0  0  0  0  0  0  0  0
  -14.4885  -38.1029   -8.5112 N   0  0  0  0  0  0  0  0  0  0  0  0
  -15.7063  -38.7010   -8.9737 C   0  0  0  0  0  0  0  0  0  0  0  0
  -16.8163  -38.3706   -8.0099 C   0  0  1  0  0  0  0  0  0  0  0  0
  -17.5023  -37.2522   -8.4942 O   0  0  0  0  0  0  0  0  0  0  0  0
  -17.7418  -39.5347   -7.7264 C   0  0  2  0  0  0  0  0  0  0  0  0
  -18.3511  -39.3886   -6.3999 C   0  0  0  0  0  0  0  0  0  0  0  0
  -19.7664  -38.8751   -6.5260 C   0  0  2  0  0  0  0  0  0  0  0  0
  -19.7242  -37.3564   -6.6836 C   0  0  0  0  0  0  0  0  0  0  0  0
  -20.5105  -39.1719   -5.2448 C   0  0  0  0  0  0  0  0  0  0  0  0
  -21.9964  -39.2836   -5.4483 C   0  0  0  0  0  0  0  0  0  0  0  0
  -22.4015  -40.5265   -6.1742 C   0  0  0  0  0  0  0  0  0  0  0  0
  -23.6115  -40.3440   -7.0489 C   0  0  0  0  0  0  0  0  0  0  0  0
  -24.2815  -41.6812   -7.2518 C   0  0  0  0  0  0  0  0  0  0  0  0
  -23.4037  -42.6580   -7.9869 C   0  0  0  0  0  0  0  0  0  0  0  0
  -23.3927  -42.4686   -9.4636 C   0  0  0  0  0  0  0  0  0  0  0  0
  -22.1982  -42.8679  -10.0325 O   0  0  0  0  0  0  0  0  0  0  0  0
  -20.9016  -43.1226   -9.6262 C   0  0  0  0  0  0  0  0  0  0  0  0
  -20.5387  -44.4465   -9.9401 C   0  0  0  0  0  0  0  0  0  0  0  0
  -19.3025  -44.9533   -9.6413 C   0  0  0  0  0  0  0  0  0  0  0  0
  -18.4466  -44.0990   -9.0233 C   0  0  0  0  0  0  0  0  0  0  0  0
  -18.7502  -42.7475   -8.6789 C   0  0  0  0  0  0  0  0  0  0  0  0
  -20.0010  -42.2791   -8.9966 C   0  0  0  0  0  0  0  0  0  0  0  0
  -17.6045  -42.0846   -8.0069 C   0  0  0  0  0  0  0  0  0  0  0  0
  -16.9027  -42.8880   -7.2257 O   0  0  0  0  0  0  0  0  0  0  0  0
  -17.0804  -40.7979   -8.0012 N   0  0  0  0  0  0  0  0  0  0  0  0
  -18.9450  -46.2890   -9.9614 N   0  0  0  0  0  0  0  0  0  0  0  0
  -19.2933  -46.8202  -11.2812 C   0  0  0  0  0  0  0  0  0  0  0  0
  -18.1192  -47.2912   -8.8430 S   0  0  0  0  0  6  0  0  0  0  0  0
  -19.3715  -48.2018   -7.9360 C   0  0  0  0  0  0  0  0  0  0  0  0
  -17.3912  -46.4614   -7.8402 O   0  0  0  0  0  0  0  0  0  0  0  0
  -17.1461  -48.2171   -9.4884 O   0  0  0  0  0  0  0  0  0  0  0  0
  -13.4327  -37.5492  -11.2300 C   0  0  0  0  0  0  0  0  0  0  0  0
  -13.4284  -37.6252  -12.6077 C   0  0  0  0  0  0  0  0  0  0  0  0
  -13.2850  -38.8508  -13.2389 C   0  0  0  0  0  0  0  0  0  0  0  0
  1  2  1  0
  2  3  1  0
  2  4  1  0
  4  5  2  0
  5  6  1  0
  6  7  1  0
  7  8  1  0
  8  9  1  0
  9 10  1  0
 10 11  1  6
 10 12  1  0
 12 13  1  1
 13 14  1  0
 14 15  1  1
 14 16  1  0
 16 17  1  0
 17 18  1  0
 18 19  1  0
 19 20  1  0
 20 21  1  0
 21 22  1  0
 22 23  1  0
 23 24  1  0
 24 25  2  0
 25 26  1  0
 26 27  2  0
 27 28  1  0
 28 29  2  0
 28 30  1  0
 30 31  2  0
 30 32  1  0
 26 33  1  0
 33 34  1  0
 33 35  1  0
 35 36  1  0
 35 37  2  0
 35 38  2  0
  6 39  2  0
 39 40  1  0
 40 41  2  0
 29 24  1  0
 32 12  1  0
 41  4  1  0
M  END
$$$$
