
     RDKit          3D

 41 43  0  0  0  0  0  0  0  0999 V2000
  -11.3021  -36.1638  -12.5314 C   0  0  0  0  0  0  0  0  0  0  0  0
  -12.6700  -36.2821  -11.9198 C   0  0  0  0  0  0  0  0  0  0  0  0
  -13.6909  -35.6700  -12.8691 C   0  0  0  0  0  0  0  0  0  0  0  0
  -12.9851  -37.7171  -11.6832 C   0  0  0  0  0  0  0  0  0  0  0  0
  -13.1068  -38.2214  -10.4048 C   0  0  0  0  0  0  0  0  0  0  0  0
  -13.4037  -39.5687  -10.1860 C   0  0  0  0  0  0  0  0  0  0  0  0
  -13.5267  -40.0459   -8.7704 C   0  0  0  0  0  0  0  0  0  0  0  0
  -14.6194  -39.3823   -8.1416 N   0  0  0  0  0  0  0  0  0  0  0  0
  -15.9256  -39.8656   -8.4803 C   0  0  0  0  0  0  0  0  0  0  0  0
  -16.9415  -39.2214   -7.5729 C   0  0  1  0  0  0  0  0  0  0  0  0
  -17.4866  -38.1168   -8.2354 O   0  0  0  0  0  0  0  0  0  0  0  0
  -18.0056  -40.1769   -7.0764 C   0  0  2  0  0  0  0  0  0  0  0  0
  -18.7157  -39.5969   -5.9311 C   0  0  0  0  0  0  0  0  0  0  0  0
  -20.0519  -39.0433   -6.3675 C   0  0  2  0  0  0  0  0  0  0  0  0
  -19.8370  -37.6486   -6.9519 C   0  0  0  0  0  0  0  0  0  0  0  0
  -20.9375  -38.8884   -5.1530 C   0  0  0  0  0  0  0  0  0  0  0  0
  -22.4019  -38.9477   -5.4902 C   0  0  0  0  0  0  0  0  0  0  0  0
  -22.8663  -40.3179   -5.8679 C   0  0  0  0  0  0  0  0  0  0  0  0
  -23.9651  -40.3181   -6.8950 C   0  0  0  0  0  0  0  0  0  0  0  0
  -24.7496  -41.6025   -6.7800 C   0  0  0  0  0  0  0  0  0  0  0  0
  -23.9148  -42.8154   -7.0913 C   0  0  0  0  0  0  0  0  0  0  0  0
  -23.7485  -43.0778   -8.5473 C   0  0  0  0  0  0  0  0  0  0  0  0
  -22.5550  -43.7146   -8.8303 O   0  0  0  0  0  0  0  0  0  0  0  0
  -21.3350  -43.9295   -8.2168 C   0  0  0  0  0  0  0  0  0  0  0  0
  -21.0850  -45.3094   -8.0885 C   0  0  0  0  0  0  0  0  0  0  0  0
  -19.9412  -45.7919   -7.5113 C   0  0  0  0  0  0  0  0  0  0  0  0
  -19.0612  -44.8564   -7.0701 C   0  0  0  0  0  0  0  0  0  0  0  0
  -19.2523  -43.4454   -7.1704 C   0  0  0  0  0  0  0  0  0  0  0  0
  -20.4128  -43.0040   -7.7562 C   0  0  0  0  0  0  0  0  0  0  0  0
  -18.1102  -42.6969   -6.5881 C   0  0  0  0  0  0  0  0  0  0  0  0
  -17.5710  -43.2786   -5.5303 O   0  0  0  0  0  0  0  0  0  0  0  0
  -17.4574  -41.5091   -6.8932 N   0  0  0  0  0  0  0  0  0  0  0  0
  -19.6973  -47.1845   -7.3861 N   0  0  0  0  0  0  0  0  0  0  0  0
  -20.8296  -48.1118   -7.4471 C   0  0  0  0  0  0  0  0  0  0  0  0
  -18.1146  -47.8037   -7.1650 S   0  0  0  0  0  6  0  0  0  0  0  0
  -17.3202  -47.7895   -8.7740 C   0  0  0  0  0  0  0  0  0  0  0  0
  -18.1699  -49.2303   -6.7340 O   0  0  0  0  0  0  0  0  0  0  0  0
  -17.3162  -47.0374   -6.1670 O   0  0  0  0  0  0  0  0  0  0  0  0
  -13.5774  -40.4056  -11.2646 C   0  0  0  0  0  0  0  0  0  0  0  0
  -13.4554  -39.9001  -12.5427 C   0  0  0  0  0  0  0  0  0  0  0  0
  -13.1603  -38.5600  -12.7382 C   0  0  0  0  0  0  0  0  0  0  0  0
  1  2  1  0
  2  3  1  0
  2  4  1  0
  4  5  2  0
  5  6  1  0
  6  7  1  0
  7  8  1  0
  8  9  1  0
  9 10  1  0
 10 11  1  6
 10 12  1  0
 12 13  1  1
 13 14  1  0
 14 15  1  1
 14 16  1  0
 16 17  1  0
 17 18  1  0
 18 19  1  0
 19 20  1  0
 20 21  1  0
 21 22  1  0
 22 23  1  0
 23 24  1  0
 24 25  2  0
 25 26  1  0
 26 27  2  0
 27 28  1  0
 28 29  2  0
 28 30  1  0
 30 31  2  0
 30 32  1  0
 26 33  1  0
 33 34  1  0
 33 35  1  0
 35 36  1  0
 35 37  2  0
 35 38  2  0
  6 39  2  0
 39 40  1  0
 40 41  2  0
 29 24  1  0
 32 12  1  0
 41  4  1  0
M  END
$$$$
