
     RDKit          3D

 41 43  0  0  0  0  0  0  0  0999 V2000
  -10.9179  -41.2734   -8.9578 C   0  0  0  0  0  0  0  0  0  0  0  0
  -12.3430  -40.9321   -8.6237 C   0  0  0  0  0  0  0  0  0  0  0  0
  -12.3607  -39.6906   -7.7424 C   0  0  0  0  0  0  0  0  0  0  0  0
  -13.1004  -40.6808   -9.8796 C   0  0  0  0  0  0  0  0  0  0  0  0
  -13.8692  -39.5460  -10.0365 C   0  0  0  0  0  0  0  0  0  0  0  0
  -14.5782  -39.3125  -11.2172 C   0  0  0  0  0  0  0  0  0  0  0  0
  -15.3883  -38.0556  -11.3200 C   0  0  0  0  0  0  0  0  0  0  0  0
  -16.7107  -38.3066  -10.8530 N   0  0  0  0  0  0  0  0  0  0  0  0
  -16.8535  -39.3913   -9.9270 C   0  0  0  0  0  0  0  0  0  0  0  0
  -17.5525  -38.8946   -8.6880 C   0  0  1  0  0  0  0  0  0  0  0  0
  -18.3953  -37.8390   -9.0506 O   0  0  0  0  0  0  0  0  0  0  0  0
  -18.2844  -39.9794   -7.9268 C   0  0  2  0  0  0  0  0  0  0  0  0
  -18.6341  -39.5095   -6.5818 C   0  0  0  0  0  0  0  0  0  0  0  0
  -20.0905  -39.1117   -6.5267 C   0  0  2  0  0  0  0  0  0  0  0  0
  -20.2309  -37.6908   -7.0693 C   0  0  0  0  0  0  0  0  0  0  0  0
  -20.5364  -39.0860   -5.0832 C   0  0  0  0  0  0  0  0  0  0  0  0
  -22.0148  -39.3137   -4.9276 C   0  0  0  0  0  0  0  0  0  0  0  0
  -22.4287  -40.7225   -5.2103 C   0  0  0  0  0  0  0  0  0  0  0  0
  -23.7984  -40.8352   -5.8215 C   0  0  0  0  0  0  0  0  0  0  0  0
  -24.3589  -42.2060   -5.5301 C   0  0  0  0  0  0  0  0  0  0  0  0
  -23.5492  -43.3046   -6.1645 C   0  0  0  0  0  0  0  0  0  0  0  0
  -23.8461  -43.5185   -7.6077 C   0  0  0  0  0  0  0  0  0  0  0  0
  -22.7522  -44.0029   -8.2997 O   0  0  0  0  0  0  0  0  0  0  0  0
  -21.3825  -44.0816   -8.1305 C   0  0  0  0  0  0  0  0  0  0  0  0
  -20.9583  -45.4238   -8.1690 C   0  0  0  0  0  0  0  0  0  0  0  0
  -19.6434  -45.7766   -8.0244 C   0  0  0  0  0  0  0  0  0  0  0  0
  -18.7724  -44.7508   -7.8418 C   0  0  0  0  0  0  0  0  0  0  0  0
  -19.1354  -43.3713   -7.7943 C   0  0  0  0  0  0  0  0  0  0  0  0
  -20.4645  -43.0611   -7.9439 C   0  0  0  0  0  0  0  0  0  0  0  0
  -17.9520  -42.5023   -7.5747 C   0  0  0  0  0  0  0  0  0  0  0  0
  -17.0348  -43.0347   -6.7850 O   0  0  0  0  0  0  0  0  0  0  0  0
  -17.5674  -41.2397   -8.0080 N   0  0  0  0  0  0  0  0  0  0  0  0
  -19.2246  -47.1321   -8.0646 N   0  0  0  0  0  0  0  0  0  0  0  0
  -19.5149  -47.9297   -9.2584 C   0  0  0  0  0  0  0  0  0  0  0  0
  -18.3910  -47.8547   -6.7531 S   0  0  0  0  0  6  0  0  0  0  0  0
  -19.4883  -47.7823   -5.3350 C   0  0  0  0  0  0  0  0  0  0  0  0
  -17.1865  -47.0510   -6.3963 O   0  0  0  0  0  0  0  0  0  0  0  0
  -17.9623  -49.2553   -7.0273 O   0  0  0  0  0  0  0  0  0  0  0  0
  -14.5076  -40.2306  -12.2399 C   0  0  0  0  0  0  0  0  0  0  0  0
  -13.7384  -41.3652  -12.0819 C   0  0  0  0  0  0  0  0  0  0  0  0
  -13.0425  -41.5780  -10.9023 C   0  0  0  0  0  0  0  0  0  0  0  0
  1  2  1  0
  2  3  1  0
  2  4  1  0
  4  5  2  0
  5  6  1  0
  6  7  1  0
  7  8  1  0
  8  9  1  0
  9 10  1  0
 10 11  1  6
 10 12  1  0
 12 13  1  1
 13 14  1  0
 14 15  1  1
 14 16  1  0
 16 17  1  0
 17 18  1  0
 18 19  1  0
 19 20  1  0
 20 21  1  0
 21 22  1  0
 22 23  1  0
 23 24  1  0
 24 25  2  0
 25 26  1  0
 26 27  2  0
 27 28  1  0
 28 29  2  0
 28 30  1  0
 30 31  2  0
 30 32  1  0
 26 33  1  0
 33 34  1  0
 33 35  1  0
 35 36  1  0
 35 37  2  0
 35 38  2  0
  6 39  2  0
 39 40  1  0
 40 41  2  0
 29 24  1  0
 32 12  1  0
 41  4  1  0
M  END
$$$$
