
     RDKit          3D

 41 43  0  0  0  0  0  0  0  0999 V2000
  -14.3482  -35.5916  -11.8130 C   0  0  0  0  0  0  0  0  0  0  0  0
  -13.5014  -36.6275  -12.4978 C   0  0  0  0  0  0  0  0  0  0  0  0
  -12.0461  -36.4164  -12.1030 C   0  0  0  0  0  0  0  0  0  0  0  0
  -13.9521  -37.9855  -12.0895 C   0  0  0  0  0  0  0  0  0  0  0  0
  -14.2071  -38.2875  -10.7677 C   0  0  0  0  0  0  0  0  0  0  0  0
  -14.6311  -39.5630  -10.3879 C   0  0  0  0  0  0  0  0  0  0  0  0
  -14.8949  -39.8181   -8.9346 C   0  0  0  0  0  0  0  0  0  0  0  0
  -15.5224  -38.6750   -8.3608 N   0  0  0  0  0  0  0  0  0  0  0  0
  -16.9056  -38.4885   -8.6876 C   0  0  0  0  0  0  0  0  0  0  0  0
  -17.7007  -38.3566   -7.4145 C   0  0  1  0  0  0  0  0  0  0  0  0
  -18.5263  -37.2331   -7.5249 O   0  0  0  0  0  0  0  0  0  0  0  0
  -18.4747  -39.6053   -7.0491 C   0  0  2  0  0  0  0  0  0  0  0  0
  -19.3707  -39.3358   -5.9192 C   0  0  0  0  0  0  0  0  0  0  0  0
  -20.7873  -39.1422   -6.4071 C   0  0  2  0  0  0  0  0  0  0  0  0
  -20.9468  -37.7015   -6.8887 C   0  0  0  0  0  0  0  0  0  0  0  0
  -21.7352  -39.3339   -5.2460 C   0  0  0  0  0  0  0  0  0  0  0  0
  -23.1069  -39.7703   -5.6816 C   0  0  0  0  0  0  0  0  0  0  0  0
  -23.1494  -41.1819   -6.1731 C   0  0  0  0  0  0  0  0  0  0  0  0
  -24.1558  -41.4068   -7.2682 C   0  0  0  0  0  0  0  0  0  0  0  0
  -24.5519  -42.8632   -7.2846 C   0  0  0  0  0  0  0  0  0  0  0  0
  -23.3964  -43.7691   -7.6150 C   0  0  0  0  0  0  0  0  0  0  0  0
  -23.0967  -43.8609   -9.0704 C   0  0  0  0  0  0  0  0  0  0  0  0
  -21.7606  -44.1179   -9.3133 O   0  0  0  0  0  0  0  0  0  0  0  0
  -20.5588  -44.0332   -8.6356 C   0  0  0  0  0  0  0  0  0  0  0  0
  -19.9370  -45.2954   -8.5769 C   0  0  0  0  0  0  0  0  0  0  0  0
  -18.7312  -45.4853   -7.9569 C   0  0  0  0  0  0  0  0  0  0  0  0
  -18.1710  -44.3797   -7.4019 C   0  0  0  0  0  0  0  0  0  0  0  0
  -18.7463  -43.0737   -7.4269 C   0  0  0  0  0  0  0  0  0  0  0  0
  -19.9561  -42.9271   -8.0591 C   0  0  0  0  0  0  0  0  0  0  0  0
  -17.8886  -42.0855   -6.7257 C   0  0  0  0  0  0  0  0  0  0  0  0
  -17.2565  -42.5754   -5.6728 O   0  0  0  0  0  0  0  0  0  0  0  0
  -17.5829  -40.7433   -6.9131 N   0  0  0  0  0  0  0  0  0  0  0  0
  -18.1116  -46.7610   -7.9025 N   0  0  0  0  0  0  0  0  0  0  0  0
  -16.7997  -46.9403   -8.5289 C   0  0  0  0  0  0  0  0  0  0  0  0
  -18.8606  -48.0917   -7.1246 S   0  0  0  0  0  6  0  0  0  0  0  0
  -18.8578  -47.7361   -5.3657 C   0  0  0  0  0  0  0  0  0  0  0  0
  -18.0451  -49.3270   -7.3068 O   0  0  0  0  0  0  0  0  0  0  0  0
  -20.2424  -48.3592   -7.6144 O   0  0  0  0  0  0  0  0  0  0  0  0
  -14.7968  -40.5336  -11.3494 C   0  0  0  0  0  0  0  0  0  0  0  0
  -14.5415  -40.2306  -12.6711 C   0  0  0  0  0  0  0  0  0  0  0  0
  -14.1215  -38.9585  -13.0271 C   0  0  0  0  0  0  0  0  0  0  0  0
  1  2  1  0
  2  3  1  0
  2  4  1  0
  4  5  2  0
  5  6  1  0
  6  7  1  0
  7  8  1  0
  8  9  1  0
  9 10  1  0
 10 11  1  6
 10 12  1  0
 12 13  1  1
 13 14  1  0
 14 15  1  1
 14 16  1  0
 16 17  1  0
 17 18  1  0
 18 19  1  0
 19 20  1  0
 20 21  1  0
 21 22  1  0
 22 23  1  0
 23 24  1  0
 24 25  2  0
 25 26  1  0
 26 27  2  0
 27 28  1  0
 28 29  2  0
 28 30  1  0
 30 31  2  0
 30 32  1  0
 26 33  1  0
 33 34  1  0
 33 35  1  0
 35 36  1  0
 35 37  2  0
 35 38  2  0
  6 39  2  0
 39 40  1  0
 40 41  2  0
 29 24  1  0
 32 12  1  0
 41  4  1  0
M  END
$$$$
