
     RDKit          3D

 41 43  0  0  0  0  0  0  0  0999 V2000
  -24.5682  -38.7005   -5.9008 C   0  0  0  0  0  0  0  0  0  0  0  0
  -24.0886  -39.5578   -4.7632 C   0  0  0  0  0  0  0  0  0  0  0  0
  -25.0688  -40.7052   -4.5611 C   0  0  0  0  0  0  0  0  0  0  0  0
  -22.7348  -40.0888   -5.0787 C   0  0  0  0  0  0  0  0  0  0  0  0
  -21.6271  -39.2664   -5.0839 C   0  0  0  0  0  0  0  0  0  0  0  0
  -20.3574  -39.7683   -5.3794 C   0  0  0  0  0  0  0  0  0  0  0  0
  -19.1984  -38.8180   -5.3608 C   0  0  0  0  0  0  0  0  0  0  0  0
  -17.9999  -39.5403   -5.0930 N   0  0  0  0  0  0  0  0  0  0  0  0
  -16.7859  -38.7794   -5.1375 C   0  0  0  0  0  0  0  0  0  0  0  0
  -16.3766  -38.5857   -6.5746 C   0  0  1  0  0  0  0  0  0  0  0  0
  -15.0261  -38.9277   -6.6983 O   0  0  0  0  0  0  0  0  0  0  0  0
  -17.2510  -39.3298   -7.5613 C   0  0  2  0  0  0  0  0  0  0  0  0
  -18.0880  -38.3867   -8.3111 C   0  0  0  0  0  0  0  0  0  0  0  0
  -17.5099  -38.1507   -9.6868 C   0  0  2  0  0  0  0  0  0  0  0  0
  -16.4061  -37.1004   -9.5806 C   0  0  0  0  0  0  0  0  0  0  0  0
  -18.5874  -37.5795  -10.5790 C   0  0  0  0  0  0  0  0  0  0  0  0
  -18.3512  -37.8711  -12.0353 C   0  0  0  0  0  0  0  0  0  0  0  0
  -18.5735  -39.3056  -12.3942 C   0  0  0  0  0  0  0  0  0  0  0  0
  -17.6705  -39.7971  -13.4921 C   0  0  0  0  0  0  0  0  0  0  0  0
  -18.3193  -40.9761  -14.1757 C   0  0  0  0  0  0  0  0  0  0  0  0
  -18.4961  -42.1504  -13.2512 C   0  0  0  0  0  0  0  0  0  0  0  0
  -17.2647  -42.9671  -13.0685 C   0  0  0  0  0  0  0  0  0  0  0  0
  -17.2232  -43.5798  -11.8304 O   0  0  0  0  0  0  0  0  0  0  0  0
  -17.8307  -43.4433  -10.5962 C   0  0  0  0  0  0  0  0  0  0  0  0
  -18.4960  -44.6325  -10.2410 C   0  0  0  0  0  0  0  0  0  0  0  0
  -19.1806  -44.7600   -9.0623 C   0  0  0  0  0  0  0  0  0  0  0  0
  -19.1779  -43.6676   -8.2556 C   0  0  0  0  0  0  0  0  0  0  0  0
  -18.5237  -42.4347   -8.5543 C   0  0  0  0  0  0  0  0  0  0  0  0
  -17.8484  -42.3493   -9.7466 C   0  0  0  0  0  0  0  0  0  0  0  0
  -18.7168  -41.4376   -7.4716 C   0  0  0  0  0  0  0  0  0  0  0  0
  -19.9010  -41.5030   -6.8871 O   0  0  0  0  0  0  0  0  0  0  0  0
  -17.9375  -40.4327   -6.9123 N   0  0  0  0  0  0  0  0  0  0  0  0
  -19.8484  -45.9625   -8.7122 N   0  0  0  0  0  0  0  0  0  0  0  0
  -21.0550  -46.3449   -9.4494 C   0  0  0  0  0  0  0  0  0  0  0  0
  -19.2782  -46.9730   -7.4510 S   0  0  0  0  0  6  0  0  0  0  0  0
  -20.3779  -46.7328   -6.0534 C   0  0  0  0  0  0  0  0  0  0  0  0
  -17.9251  -46.5334   -7.0039 O   0  0  0  0  0  0  0  0  0  0  0  0
  -19.2068  -48.4111   -7.8349 O   0  0  0  0  0  0  0  0  0  0  0  0
  -20.2108  -41.1054   -5.6701 C   0  0  0  0  0  0  0  0  0  0  0  0
  -21.3194  -41.9270   -5.6646 C   0  0  0  0  0  0  0  0  0  0  0  0
  -22.5705  -41.4091   -5.3686 C   0  0  0  0  0  0  0  0  0  0  0  0
  1  2  1  0
  2  3  1  0
  2  4  1  0
  4  5  2  0
  5  6  1  0
  6  7  1  0
  7  8  1  0
  8  9  1  0
  9 10  1  0
 10 11  1  1
 10 12  1  0
 12 13  1  1
 13 14  1  0
 14 15  1  1
 14 16  1  0
 16 17  1  0
 17 18  1  0
 18 19  1  0
 19 20  1  0
 20 21  1  0
 21 22  1  0
 22 23  1  0
 23 24  1  0
 24 25  2  0
 25 26  1  0
 26 27  2  0
 27 28  1  0
 28 29  2  0
 28 30  1  0
 30 31  2  0
 30 32  1  0
 26 33  1  0
 33 34  1  0
 33 35  1  0
 35 36  1  0
 35 37  2  0
 35 38  2  0
  6 39  2  0
 39 40  1  0
 40 41  2  0
 29 24  1  0
 32 12  1  0
 41  4  1  0
M  END
$$$$
