
     RDKit          3D

 41 43  0  0  0  0  0  0  0  0999 V2000
  -12.5133  -33.8261  -11.4686 C   0  0  0  0  0  0  0  0  0  0  0  0
  -13.3936  -34.5862  -12.4207 C   0  0  0  0  0  0  0  0  0  0  0  0
  -12.6316  -35.7985  -12.9382 C   0  0  0  0  0  0  0  0  0  0  0  0
  -14.6296  -35.0199  -11.7148 C   0  0  0  0  0  0  0  0  0  0  0  0
  -14.5896  -35.9848  -10.7295 C   0  0  0  0  0  0  0  0  0  0  0  0
  -15.7515  -36.3889  -10.0679 C   0  0  0  0  0  0  0  0  0  0  0  0
  -15.6323  -37.4382   -9.0042 C   0  0  0  0  0  0  0  0  0  0  0  0
  -15.4950  -38.7175   -9.6160 N   0  0  0  0  0  0  0  0  0  0  0  0
  -14.4697  -39.5629   -9.0788 C   0  0  0  0  0  0  0  0  0  0  0  0
  -15.0271  -40.3346   -7.9109 C   0  0  1  0  0  0  0  0  0  0  0  0
  -15.0130  -39.5034   -6.7861 O   0  0  0  0  0  0  0  0  0  0  0  0
  -16.3960  -40.9267   -8.1712 C   0  0  2  0  0  0  0  0  0  0  0  0
  -16.7319  -40.8241   -9.5956 C   0  0  0  0  0  0  0  0  0  0  0  0
  -16.5205  -42.1533  -10.2819 C   0  0  2  0  0  0  0  0  0  0  0  0
  -15.0404  -42.2938  -10.6320 C   0  0  0  0  0  0  0  0  0  0  0  0
  -17.2909  -42.1607  -11.5819 C   0  0  0  0  0  0  0  0  0  0  0  0
  -17.6635  -43.5475  -12.0286 C   0  0  0  0  0  0  0  0  0  0  0  0
  -18.7340  -44.1705  -11.1908 C   0  0  0  0  0  0  0  0  0  0  0  0
  -18.5970  -45.6620  -11.0524 C   0  0  0  0  0  0  0  0  0  0  0  0
  -19.9483  -46.2558  -10.7370 C   0  0  0  0  0  0  0  0  0  0  0  0
  -20.4895  -45.7822   -9.4149 C   0  0  0  0  0  0  0  0  0  0  0  0
  -19.9277  -46.5017   -8.2387 C   0  0  0  0  0  0  0  0  0  0  0  0
  -19.8998  -45.7097   -7.1065 O   0  0  0  0  0  0  0  0  0  0  0  0
  -19.9653  -44.3652   -6.7918 C   0  0  0  0  0  0  0  0  0  0  0  0
  -21.0531  -44.1132   -5.9337 C   0  0  0  0  0  0  0  0  0  0  0  0
  -21.3413  -42.8567   -5.4726 C   0  0  0  0  0  0  0  0  0  0  0  0
  -20.5119  -41.8674   -5.8940 C   0  0  0  0  0  0  0  0  0  0  0  0
  -19.3932  -42.0547   -6.7605 C   0  0  0  0  0  0  0  0  0  0  0  0
  -19.1394  -43.3305   -7.1996 C   0  0  0  0  0  0  0  0  0  0  0  0
  -18.6956  -40.7737   -7.0364 C   0  0  0  0  0  0  0  0  0  0  0  0
  -19.5028  -39.7295   -7.1157 O   0  0  0  0  0  0  0  0  0  0  0  0
  -17.3724  -40.3995   -7.2345 N   0  0  0  0  0  0  0  0  0  0  0  0
  -22.4397  -42.6117   -4.6079 N   0  0  0  0  0  0  0  0  0  0  0  0
  -23.7869  -42.5299   -5.1772 C   0  0  0  0  0  0  0  0  0  0  0  0
  -22.2269  -42.4090   -2.9195 S   0  0  0  0  0  6  0  0  0  0  0  0
  -21.6653  -40.7240   -2.6637 C   0  0  0  0  0  0  0  0  0  0  0  0
  -21.1369  -43.2973   -2.4224 O   0  0  0  0  0  0  0  0  0  0  0  0
  -23.4613  -42.6872   -2.1324 O   0  0  0  0  0  0  0  0  0  0  0  0
  -16.9555  -35.8140  -10.4057 C   0  0  0  0  0  0  0  0  0  0  0  0
  -16.9943  -34.8491  -11.3912 C   0  0  0  0  0  0  0  0  0  0  0  0
  -15.8297  -34.4621  -12.0356 C   0  0  0  0  0  0  0  0  0  0  0  0
  1  2  1  0
  2  3  1  0
  2  4  1  0
  4  5  2  0
  5  6  1  0
  6  7  1  0
  7  8  1  0
  8  9  1  0
  9 10  1  0
 10 11  1  1
 10 12  1  0
 12 13  1  6
 13 14  1  0
 14 15  1  6
 14 16  1  0
 16 17  1  0
 17 18  1  0
 18 19  1  0
 19 20  1  0
 20 21  1  0
 21 22  1  0
 22 23  1  0
 23 24  1  0
 24 25  2  0
 25 26  1  0
 26 27  2  0
 27 28  1  0
 28 29  2  0
 28 30  1  0
 30 31  2  0
 30 32  1  0
 26 33  1  0
 33 34  1  0
 33 35  1  0
 35 36  1  0
 35 37  2  0
 35 38  2  0
  6 39  2  0
 39 40  1  0
 40 41  2  0
 29 24  1  0
 32 12  1  0
 41  4  1  0
M  END
$$$$
