
     RDKit          3D

 41 43  0  0  0  0  0  0  0  0999 V2000
  -19.0556  -35.9416  -10.9388 C   0  0  0  0  0  0  0  0  0  0  0  0
  -18.5394  -36.5750  -12.2003 C   0  0  0  0  0  0  0  0  0  0  0  0
  -17.8285  -35.5154  -13.0308 C   0  0  0  0  0  0  0  0  0  0  0  0
  -17.5970  -37.6733  -11.8541 C   0  0  0  0  0  0  0  0  0  0  0  0
  -16.7963  -37.6022  -10.7328 C   0  0  0  0  0  0  0  0  0  0  0  0
  -15.9135  -38.6354  -10.4101 C   0  0  0  0  0  0  0  0  0  0  0  0
  -15.0784  -38.4930   -9.1735 C   0  0  0  0  0  0  0  0  0  0  0  0
  -15.5345  -39.4141   -8.1869 N   0  0  0  0  0  0  0  0  0  0  0  0
  -16.9173  -39.7832   -8.2652 C   0  0  0  0  0  0  0  0  0  0  0  0
  -17.5948  -39.4402   -6.9638 C   0  0  1  0  0  0  0  0  0  0  0  0
  -18.2465  -38.2121   -7.1163 O   0  0  0  0  0  0  0  0  0  0  0  0
  -18.5221  -40.5243   -6.4570 C   0  0  2  0  0  0  0  0  0  0  0  0
  -19.2016  -40.0817   -5.2344 C   0  0  0  0  0  0  0  0  0  0  0  0
  -20.6134  -39.6443   -5.5474 C   0  0  2  0  0  0  0  0  0  0  0  0
  -20.5782  -38.2057   -6.0593 C   0  0  0  0  0  0  0  0  0  0  0  0
  -21.4206  -39.6457   -4.2701 C   0  0  0  0  0  0  0  0  0  0  0  0
  -22.8926  -39.8354   -4.5130 C   0  0  0  0  0  0  0  0  0  0  0  0
  -23.2465  -41.2236   -4.9415 C   0  0  0  0  0  0  0  0  0  0  0  0
  -24.4108  -41.2804   -5.8921 C   0  0  0  0  0  0  0  0  0  0  0  0
  -25.0557  -42.6423   -5.8036 C   0  0  0  0  0  0  0  0  0  0  0  0
  -24.1308  -43.7456   -6.2420 C   0  0  0  0  0  0  0  0  0  0  0  0
  -24.0443  -43.9112   -7.7191 C   0  0  0  0  0  0  0  0  0  0  0  0
  -22.8176  -44.4072   -8.1180 O   0  0  0  0  0  0  0  0  0  0  0  0
  -21.5416  -44.5295   -7.6004 C   0  0  0  0  0  0  0  0  0  0  0  0
  -21.1494  -45.8817   -7.5726 C   0  0  0  0  0  0  0  0  0  0  0  0
  -19.9255  -46.2756   -7.1023 C   0  0  0  0  0  0  0  0  0  0  0  0
  -19.1119  -45.2804   -6.6642 C   0  0  0  0  0  0  0  0  0  0  0  0
  -19.4467  -43.8929   -6.6662 C   0  0  0  0  0  0  0  0  0  0  0  0
  -20.6838  -43.5410   -7.1464 C   0  0  0  0  0  0  0  0  0  0  0  0
  -18.3445  -43.0643   -6.1162 C   0  0  0  0  0  0  0  0  0  0  0  0
  -17.6767  -43.6440   -5.1333 O   0  0  0  0  0  0  0  0  0  0  0  0
  -17.8345  -41.8017   -6.3912 N   0  0  0  0  0  0  0  0  0  0  0  0
  -19.5383  -47.6408   -7.0779 N   0  0  0  0  0  0  0  0  0  0  0  0
  -20.5351  -48.6553   -6.7277 C   0  0  0  0  0  0  0  0  0  0  0  0
  -17.9370  -48.1278   -7.4465 S   0  0  0  0  0  6  0  0  0  0  0  0
  -17.9774  -48.8519   -9.0879 C   0  0  0  0  0  0  0  0  0  0  0  0
  -17.4957  -49.2089   -6.5189 O   0  0  0  0  0  0  0  0  0  0  0  0
  -16.9513  -47.0123   -7.3776 O   0  0  0  0  0  0  0  0  0  0  0  0
  -15.8423  -39.7420  -11.2252 C   0  0  0  0  0  0  0  0  0  0  0  0
  -16.6435  -39.8121  -12.3463 C   0  0  0  0  0  0  0  0  0  0  0  0
  -17.5130  -38.7759  -12.6488 C   0  0  0  0  0  0  0  0  0  0  0  0
  1  2  1  0
  2  3  1  0
  2  4  1  0
  4  5  2  0
  5  6  1  0
  6  7  1  0
  7  8  1  0
  8  9  1  0
  9 10  1  0
 10 11  1  6
 10 12  1  0
 12 13  1  1
 13 14  1  0
 14 15  1  1
 14 16  1  0
 16 17  1  0
 17 18  1  0
 18 19  1  0
 19 20  1  0
 20 21  1  0
 21 22  1  0
 22 23  1  0
 23 24  1  0
 24 25  2  0
 25 26  1  0
 26 27  2  0
 27 28  1  0
 28 29  2  0
 28 30  1  0
 30 31  2  0
 30 32  1  0
 26 33  1  0
 33 34  1  0
 33 35  1  0
 35 36  1  0
 35 37  2  0
 35 38  2  0
  6 39  2  0
 39 40  1  0
 40 41  2  0
 29 24  1  0
 32 12  1  0
 41  4  1  0
M  END
$$$$
