
     RDKit          3D

 41 43  0  0  0  0  0  0  0  0999 V2000
  -14.7270  -40.5893  -14.0138 C   0  0  0  0  0  0  0  0  0  0  0  0
  -13.3478  -40.6826  -13.4237 C   0  0  0  0  0  0  0  0  0  0  0  0
  -12.3216  -40.5313  -14.5382 C   0  0  0  0  0  0  0  0  0  0  0  0
  -13.1679  -39.6075  -12.4108 C   0  0  0  0  0  0  0  0  0  0  0  0
  -13.4522  -39.8249  -11.0784 C   0  0  0  0  0  0  0  0  0  0  0  0
  -13.2812  -38.8138  -10.1299 C   0  0  0  0  0  0  0  0  0  0  0  0
  -13.6045  -39.1229   -8.6993 C   0  0  0  0  0  0  0  0  0  0  0  0
  -14.8402  -39.8292   -8.6364 N   0  0  0  0  0  0  0  0  0  0  0  0
  -15.9596  -39.1917   -9.2650 C   0  0  0  0  0  0  0  0  0  0  0  0
  -16.8920  -38.6702   -8.2026 C   0  0  1  0  0  0  0  0  0  0  0  0
  -17.6156  -37.5996   -8.7379 O   0  0  0  0  0  0  0  0  0  0  0  0
  -17.7921  -39.7329   -7.6088 C   0  0  2  0  0  0  0  0  0  0  0  0
  -18.4385  -39.2298   -6.3917 C   0  0  0  0  0  0  0  0  0  0  0  0
  -19.8636  -38.8226   -6.6840 C   0  0  2  0  0  0  0  0  0  0  0  0
  -19.8591  -37.4139   -7.2745 C   0  0  0  0  0  0  0  0  0  0  0  0
  -20.6314  -38.7609   -5.3840 C   0  0  0  0  0  0  0  0  0  0  0  0
  -22.1080  -38.9764   -5.5704 C   0  0  0  0  0  0  0  0  0  0  0  0
  -22.4605  -40.3891   -5.9112 C   0  0  0  0  0  0  0  0  0  0  0  0
  -23.6526  -40.5081   -6.8207 C   0  0  0  0  0  0  0  0  0  0  0  0
  -24.2803  -41.8686   -6.6380 C   0  0  0  0  0  0  0  0  0  0  0  0
  -23.3578  -42.9862   -7.0441 C   0  0  0  0  0  0  0  0  0  0  0  0
  -23.3148  -43.2318   -8.5118 C   0  0  0  0  0  0  0  0  0  0  0  0
  -22.0958  -43.7383   -8.9211 O   0  0  0  0  0  0  0  0  0  0  0  0
  -20.8034  -43.8209   -8.4375 C   0  0  0  0  0  0  0  0  0  0  0  0
  -20.3965  -45.1661   -8.3482 C   0  0  0  0  0  0  0  0  0  0  0  0
  -19.1547  -45.5229   -7.8953 C   0  0  0  0  0  0  0  0  0  0  0  0
  -18.3385  -44.4982   -7.5378 C   0  0  0  0  0  0  0  0  0  0  0  0
  -18.6876  -43.1158   -7.6050 C   0  0  0  0  0  0  0  0  0  0  0  0
  -19.9424  -42.8016   -8.0650 C   0  0  0  0  0  0  0  0  0  0  0  0
  -17.5778  -42.2488   -7.1356 C   0  0  0  0  0  0  0  0  0  0  0  0
  -16.8742  -42.7679   -6.1438 O   0  0  0  0  0  0  0  0  0  0  0  0
  -17.0896  -40.9987   -7.4948 N   0  0  0  0  0  0  0  0  0  0  0  0
  -18.7528  -46.8813   -7.8086 N   0  0  0  0  0  0  0  0  0  0  0  0
  -19.0926  -47.7935   -8.9032 C   0  0  0  0  0  0  0  0  0  0  0  0
  -17.8832  -47.4770   -6.4573 S   0  0  0  0  0  6  0  0  0  0  0  0
  -16.2563  -46.7216   -6.5105 C   0  0  0  0  0  0  0  0  0  0  0  0
  -17.6702  -48.9477   -6.5831 O   0  0  0  0  0  0  0  0  0  0  0  0
  -18.5573  -47.2051   -5.1563 O   0  0  0  0  0  0  0  0  0  0  0  0
  -12.8213  -37.5809  -10.5328 C   0  0  0  0  0  0  0  0  0  0  0  0
  -12.5373  -37.3645  -11.8657 C   0  0  0  0  0  0  0  0  0  0  0  0
  -12.7138  -38.3813  -12.7910 C   0  0  0  0  0  0  0  0  0  0  0  0
  1  2  1  0
  2  3  1  0
  2  4  1  0
  4  5  2  0
  5  6  1  0
  6  7  1  0
  7  8  1  0
  8  9  1  0
  9 10  1  0
 10 11  1  6
 10 12  1  0
 12 13  1  1
 13 14  1  0
 14 15  1  1
 14 16  1  0
 16 17  1  0
 17 18  1  0
 18 19  1  0
 19 20  1  0
 20 21  1  0
 21 22  1  0
 22 23  1  0
 23 24  1  0
 24 25  2  0
 25 26  1  0
 26 27  2  0
 27 28  1  0
 28 29  2  0
 28 30  1  0
 30 31  2  0
 30 32  1  0
 26 33  1  0
 33 34  1  0
 33 35  1  0
 35 36  1  0
 35 37  2  0
 35 38  2  0
  6 39  2  0
 39 40  1  0
 40 41  2  0
 29 24  1  0
 32 12  1  0
 41  4  1  0
M  END
$$$$
