
     RDKit          3D

 41 43  0  0  0  0  0  0  0  0999 V2000
  -21.5827  -39.4363   -4.2801 C   0  0  0  0  0  0  0  0  0  0  0  0
  -22.2678  -40.0840   -5.4506 C   0  0  0  0  0  0  0  0  0  0  0  0
  -23.7009  -39.5755   -5.5284 C   0  0  0  0  0  0  0  0  0  0  0  0
  -21.5356  -39.7483   -6.7018 C   0  0  0  0  0  0  0  0  0  0  0  0
  -20.5100  -38.8256   -6.7049 C   0  0  0  0  0  0  0  0  0  0  0  0
  -19.8239  -38.5135   -7.8809 C   0  0  0  0  0  0  0  0  0  0  0  0
  -18.7166  -37.5058   -7.8086 C   0  0  0  0  0  0  0  0  0  0  0  0
  -18.0437  -37.6323   -6.5592 N   0  0  0  0  0  0  0  0  0  0  0  0
  -17.5682  -38.9446   -6.2331 C   0  0  0  0  0  0  0  0  0  0  0  0
  -16.3801  -39.2694   -7.1010 C   0  0  1  0  0  0  0  0  0  0  0  0
  -15.2771  -39.4963   -6.2715 O   0  0  0  0  0  0  0  0  0  0  0  0
  -16.6233  -40.4149   -8.0605 C   0  0  2  0  0  0  0  0  0  0  0  0
  -16.3830  -39.9814   -9.4413 C   0  0  0  0  0  0  0  0  0  0  0  0
  -15.0314  -40.4622   -9.9148 C   0  0  2  0  0  0  0  0  0  0  0  0
  -13.9635  -39.4914   -9.4148 C   0  0  0  0  0  0  0  0  0  0  0  0
  -14.9999  -40.4238  -11.4251 C   0  0  0  0  0  0  0  0  0  0  0  0
  -14.0216  -41.4042  -12.0111 C   0  0  0  0  0  0  0  0  0  0  0  0
  -14.4637  -42.8271  -11.8846 C   0  0  0  0  0  0  0  0  0  0  0  0
  -13.3271  -43.7956  -11.7039 C   0  0  0  0  0  0  0  0  0  0  0  0
  -13.7641  -45.1635  -12.1686 C   0  0  0  0  0  0  0  0  0  0  0  0
  -14.8932  -45.7176  -11.3421 C   0  0  0  0  0  0  0  0  0  0  0  0
  -14.4587  -46.3228  -10.0531 C   0  0  0  0  0  0  0  0  0  0  0  0
  -15.4344  -46.2320   -9.0784 O   0  0  0  0  0  0  0  0  0  0  0  0
  -16.5825  -45.5000   -8.8396 C   0  0  0  0  0  0  0  0  0  0  0  0
  -17.6917  -46.3562   -8.6997 C   0  0  0  0  0  0  0  0  0  0  0  0
  -18.9527  -45.8812   -8.4578 C   0  0  0  0  0  0  0  0  0  0  0  0
  -19.0677  -44.5315   -8.3605 C   0  0  0  0  0  0  0  0  0  0  0  0
  -17.9861  -43.6093   -8.4905 C   0  0  0  0  0  0  0  0  0  0  0  0
  -16.7380  -44.1277   -8.7325 C   0  0  0  0  0  0  0  0  0  0  0  0
  -18.4443  -42.2054   -8.3396 C   0  0  0  0  0  0  0  0  0  0  0  0
  -19.6494  -41.9783   -8.8339 O   0  0  0  0  0  0  0  0  0  0  0  0
  -17.9018  -41.0493   -7.7926 N   0  0  0  0  0  0  0  0  0  0  0  0
  -20.0651  -46.7514   -8.3180 N   0  0  0  0  0  0  0  0  0  0  0  0
  -21.0989  -46.7544   -9.3557 C   0  0  0  0  0  0  0  0  0  0  0  0
  -20.2266  -47.7942   -6.9676 S   0  0  0  0  0  6  0  0  0  0  0  0
  -20.0846  -49.4729   -7.5857 C   0  0  0  0  0  0  0  0  0  0  0  0
  -21.5916  -47.6751   -6.3789 O   0  0  0  0  0  0  0  0  0  0  0  0
  -19.2239  -47.5314   -5.8970 O   0  0  0  0  0  0  0  0  0  0  0  0
  -20.1781  -39.1377   -9.0551 C   0  0  0  0  0  0  0  0  0  0  0  0
  -21.2040  -40.0604   -9.0509 C   0  0  0  0  0  0  0  0  0  0  0  0
  -21.8722  -40.3559   -7.8730 C   0  0  0  0  0  0  0  0  0  0  0  0
  1  2  1  0
  2  3  1  0
  2  4  1  0
  4  5  2  0
  5  6  1  0
  6  7  1  0
  7  8  1  0
  8  9  1  0
  9 10  1  0
 10 11  1  1
 10 12  1  0
 12 13  1  6
 13 14  1  0
 14 15  1  1
 14 16  1  0
 16 17  1  0
 17 18  1  0
 18 19  1  0
 19 20  1  0
 20 21  1  0
 21 22  1  0
 22 23  1  0
 23 24  1  0
 24 25  2  0
 25 26  1  0
 26 27  2  0
 27 28  1  0
 28 29  2  0
 28 30  1  0
 30 31  2  0
 30 32  1  0
 26 33  1  0
 33 34  1  0
 33 35  1  0
 35 36  1  0
 35 37  2  0
 35 38  2  0
  6 39  2  0
 39 40  1  0
 40 41  2  0
 29 24  1  0
 32 12  1  0
 41  4  1  0
M  END
$$$$
