
     RDKit          3D

 41 43  0  0  0  0  0  0  0  0999 V2000
  -15.5326  -37.0556  -14.0145 C   0  0  0  0  0  0  0  0  0  0  0  0
  -16.2737  -36.5260  -12.8190 C   0  0  0  0  0  0  0  0  0  0  0  0
  -17.3830  -37.5023  -12.4522 C   0  0  0  0  0  0  0  0  0  0  0  0
  -15.3298  -36.3700  -11.6793 C   0  0  0  0  0  0  0  0  0  0  0  0
  -14.9438  -37.4530  -10.9167 C   0  0  0  0  0  0  0  0  0  0  0  0
  -14.0566  -37.3035   -9.8482 C   0  0  0  0  0  0  0  0  0  0  0  0
  -13.6767  -38.5249   -9.0669 C   0  0  0  0  0  0  0  0  0  0  0  0
  -14.4264  -38.5630   -7.8560 N   0  0  0  0  0  0  0  0  0  0  0  0
  -15.8496  -38.4657   -7.9961 C   0  0  0  0  0  0  0  0  0  0  0  0
  -16.3806  -39.7599   -8.5560 C   0  0  1  0  0  0  0  0  0  0  0  0
  -15.3090  -40.6447   -8.7137 O   0  0  0  0  0  0  0  0  0  0  0  0
  -17.5058  -40.3592   -7.7394 C   0  0  2  0  0  0  0  0  0  0  0  0
  -17.9228  -39.4265   -6.6866 C   0  0  0  0  0  0  0  0  0  0  0  0
  -19.1940  -38.7158   -7.0883 C   0  0  2  0  0  0  0  0  0  0  0  0
  -18.8329  -37.5424   -7.9970 C   0  0  0  0  0  0  0  0  0  0  0  0
  -19.8447  -38.1407   -5.8516 C   0  0  0  0  0  0  0  0  0  0  0  0
  -21.3313  -37.9709   -6.0028 C   0  0  0  0  0  0  0  0  0  0  0  0
  -22.0771  -39.2670   -6.0025 C   0  0  0  0  0  0  0  0  0  0  0  0
  -23.3025  -39.2552   -6.8747 C   0  0  0  0  0  0  0  0  0  0  0  0
  -24.2702  -40.3038   -6.3824 C   0  0  0  0  0  0  0  0  0  0  0  0
  -23.7143  -41.6977   -6.4972 C   0  0  0  0  0  0  0  0  0  0  0  0
  -23.8189  -42.2799   -7.8635 C   0  0  0  0  0  0  0  0  0  0  0  0
  -22.8102  -43.1885   -8.1226 O   0  0  0  0  0  0  0  0  0  0  0  0
  -21.5668  -43.5151   -7.6145 C   0  0  0  0  0  0  0  0  0  0  0  0
  -21.5422  -44.8612   -7.2015 C   0  0  0  0  0  0  0  0  0  0  0  0
  -20.4246  -45.4363   -6.6587 C   0  0  0  0  0  0  0  0  0  0  0  0
  -19.3398  -44.6275   -6.5436 C   0  0  0  0  0  0  0  0  0  0  0  0
  -19.2974  -43.2579   -6.9432 C   0  0  0  0  0  0  0  0  0  0  0  0
  -20.4397  -42.7205   -7.4830 C   0  0  0  0  0  0  0  0  0  0  0  0
  -17.9683  -42.6523   -6.6777 C   0  0  0  0  0  0  0  0  0  0  0  0
  -17.3833  -43.1023   -5.5806 O   0  0  0  0  0  0  0  0  0  0  0  0
  -17.1743  -41.7085   -7.3171 N   0  0  0  0  0  0  0  0  0  0  0  0
  -20.4086  -46.7939   -6.2451 N   0  0  0  0  0  0  0  0  0  0  0  0
  -21.5752  -47.3366   -5.5452 C   0  0  0  0  0  0  0  0  0  0  0  0
  -19.0603  -47.8088   -6.5438 S   0  0  0  0  0  6  0  0  0  0  0  0
  -19.6103  -49.0852   -7.6789 C   0  0  0  0  0  0  0  0  0  0  0  0
  -18.6471  -48.5063   -5.2921 O   0  0  0  0  0  0  0  0  0  0  0  0
  -17.8822  -47.0778   -7.0903 O   0  0  0  0  0  0  0  0  0  0  0  0
  -13.5604  -36.0544   -9.5524 C   0  0  0  0  0  0  0  0  0  0  0  0
  -13.9472  -34.9719  -10.3157 C   0  0  0  0  0  0  0  0  0  0  0  0
  -14.8285  -35.1418  -11.3719 C   0  0  0  0  0  0  0  0  0  0  0  0
  1  2  1  0
  2  3  1  0
  2  4  1  0
  4  5  2  0
  5  6  1  0
  6  7  1  0
  7  8  1  0
  8  9  1  0
  9 10  1  0
 10 11  1  1
 10 12  1  0
 12 13  1  1
 13 14  1  0
 14 15  1  6
 14 16  1  0
 16 17  1  0
 17 18  1  0
 18 19  1  0
 19 20  1  0
 20 21  1  0
 21 22  1  0
 22 23  1  0
 23 24  1  0
 24 25  2  0
 25 26  1  0
 26 27  2  0
 27 28  1  0
 28 29  2  0
 28 30  1  0
 30 31  2  0
 30 32  1  0
 26 33  1  0
 33 34  1  0
 33 35  1  0
 35 36  1  0
 35 37  2  0
 35 38  2  0
  6 39  2  0
 39 40  1  0
 40 41  2  0
 29 24  1  0
 32 12  1  0
 41  4  1  0
M  END
$$$$
