
     RDKit          3D

 41 43  0  0  0  0  0  0  0  0999 V2000
  -17.8408  -46.9846   -9.1235 C   0  0  0  0  0  0  0  0  0  0  0  0
  -16.4932  -46.4377   -9.5030 C   0  0  0  0  0  0  0  0  0  0  0  0
  -16.0069  -47.1478  -10.7589 C   0  0  0  0  0  0  0  0  0  0  0  0
  -16.6036  -44.9746   -9.7509 C   0  0  0  0  0  0  0  0  0  0  0  0
  -15.6184  -44.1023   -9.3361 C   0  0  0  0  0  0  0  0  0  0  0  0
  -15.7245  -42.7296   -9.5714 C   0  0  0  0  0  0  0  0  0  0  0  0
  -14.6133  -41.8420   -9.0979 C   0  0  0  0  0  0  0  0  0  0  0  0
  -15.0782  -40.4968   -9.0337 N   0  0  0  0  0  0  0  0  0  0  0  0
  -15.1283  -39.9123   -7.7258 C   0  0  0  0  0  0  0  0  0  0  0  0
  -16.3953  -39.1079   -7.5922 C   0  0  1  0  0  0  0  0  0  0  0  0
  -16.6038  -38.4120   -8.7873 O   0  0  0  0  0  0  0  0  0  0  0  0
  -17.5993  -39.9327   -7.1895 C   0  0  2  0  0  0  0  0  0  0  0  0
  -18.3336  -39.2664   -6.1083 C   0  0  0  0  0  0  0  0  0  0  0  0
  -19.5565  -38.5688   -6.6563 C   0  0  2  0  0  0  0  0  0  0  0  0
  -19.1358  -37.2124   -7.2185 C   0  0  0  0  0  0  0  0  0  0  0  0
  -20.5187  -38.3045   -5.5215 C   0  0  0  0  0  0  0  0  0  0  0  0
  -21.9464  -38.2004   -5.9825 C   0  0  0  0  0  0  0  0  0  0  0  0
  -22.5295  -39.5125   -6.4001 C   0  0  0  0  0  0  0  0  0  0  0  0
  -23.5300  -39.3970   -7.5173 C   0  0  0  0  0  0  0  0  0  0  0  0
  -24.4621  -40.5833   -7.4712 C   0  0  0  0  0  0  0  0  0  0  0  0
  -23.7470  -41.8855   -7.7116 C   0  0  0  0  0  0  0  0  0  0  0  0
  -23.4885  -42.1773   -9.1485 C   0  0  0  0  0  0  0  0  0  0  0  0
  -22.3553  -42.9475   -9.3294 O   0  0  0  0  0  0  0  0  0  0  0  0
  -21.2241  -43.2939   -8.6144 C   0  0  0  0  0  0  0  0  0  0  0  0
  -21.1442  -44.6920   -8.4669 C   0  0  0  0  0  0  0  0  0  0  0  0
  -20.1156  -45.2960   -7.7949 C   0  0  0  0  0  0  0  0  0  0  0  0
  -19.1758  -44.4624   -7.2791 C   0  0  0  0  0  0  0  0  0  0  0  0
  -19.1963  -43.0398   -7.3936 C   0  0  0  0  0  0  0  0  0  0  0  0
  -20.2453  -42.4748   -8.0756 C   0  0  0  0  0  0  0  0  0  0  0  0
  -18.0302  -42.4204   -6.7151 C   0  0  0  0  0  0  0  0  0  0  0  0
  -17.6523  -43.0504   -5.6158 O   0  0  0  0  0  0  0  0  0  0  0  0
  -17.2233  -41.3167   -6.9618 N   0  0  0  0  0  0  0  0  0  0  0  0
  -20.0428  -46.7061   -7.6511 N   0  0  0  0  0  0  0  0  0  0  0  0
  -21.0974  -47.5350   -8.2397 C   0  0  0  0  0  0  0  0  0  0  0  0
  -18.7549  -47.4584   -6.8071 S   0  0  0  0  0  6  0  0  0  0  0  0
  -17.2360  -46.7060   -7.3963 C   0  0  0  0  0  0  0  0  0  0  0  0
  -18.6750  -48.9047   -7.1621 O   0  0  0  0  0  0  0  0  0  0  0  0
  -18.8719  -47.3395   -5.3262 O   0  0  0  0  0  0  0  0  0  0  0  0
  -16.8308  -42.2406  -10.2278 C   0  0  0  0  0  0  0  0  0  0  0  0
  -17.8155  -43.1138  -10.6421 C   0  0  0  0  0  0  0  0  0  0  0  0
  -17.6910  -44.4727  -10.3989 C   0  0  0  0  0  0  0  0  0  0  0  0
  1  2  1  0
  2  3  1  0
  2  4  1  0
  4  5  2  0
  5  6  1  0
  6  7  1  0
  7  8  1  0
  8  9  1  0
  9 10  1  0
 10 11  1  6
 10 12  1  0
 12 13  1  1
 13 14  1  0
 14 15  1  1
 14 16  1  0
 16 17  1  0
 17 18  1  0
 18 19  1  0
 19 20  1  0
 20 21  1  0
 21 22  1  0
 22 23  1  0
 23 24  1  0
 24 25  2  0
 25 26  1  0
 26 27  2  0
 27 28  1  0
 28 29  2  0
 28 30  1  0
 30 31  2  0
 30 32  1  0
 26 33  1  0
 33 34  1  0
 33 35  1  0
 35 36  1  0
 35 37  2  0
 35 38  2  0
  6 39  2  0
 39 40  1  0
 40 41  2  0
 29 24  1  0
 32 12  1  0
 41  4  1  0
M  END
$$$$
