
     RDKit          3D

 41 43  0  0  0  0  0  0  0  0999 V2000
  -14.8712  -36.6817  -12.4165 C   0  0  0  0  0  0  0  0  0  0  0  0
  -13.7113  -37.5774  -12.7504 C   0  0  0  0  0  0  0  0  0  0  0  0
  -12.4245  -36.9202  -12.2702 C   0  0  0  0  0  0  0  0  0  0  0  0
  -13.8942  -38.8951  -12.0838 C   0  0  0  0  0  0  0  0  0  0  0  0
  -13.9445  -39.0007  -10.7091 C   0  0  0  0  0  0  0  0  0  0  0  0
  -14.1174  -40.2390  -10.0865 C   0  0  0  0  0  0  0  0  0  0  0  0
  -14.1685  -40.2777   -8.5889 C   0  0  0  0  0  0  0  0  0  0  0  0
  -14.9129  -39.1602   -8.1128 N   0  0  0  0  0  0  0  0  0  0  0  0
  -16.3247  -39.1964   -8.3583 C   0  0  0  0  0  0  0  0  0  0  0  0
  -17.0571  -39.1129   -7.0442 C   0  0  1  0  0  0  0  0  0  0  0  0
  -17.5783  -37.8218   -6.9113 O   0  0  0  0  0  0  0  0  0  0  0  0
  -18.1156  -40.1811   -6.8693 C   0  0  2  0  0  0  0  0  0  0  0  0
  -19.0034  -39.8392   -5.7526 C   0  0  0  0  0  0  0  0  0  0  0  0
  -20.3031  -39.2694   -6.2707 C   0  0  2  0  0  0  0  0  0  0  0  0
  -20.1008  -37.7864   -6.5754 C   0  0  0  0  0  0  0  0  0  0  0  0
  -21.3474  -39.3647   -5.1826 C   0  0  0  0  0  0  0  0  0  0  0  0
  -22.7488  -39.4200   -5.7255 C   0  0  0  0  0  0  0  0  0  0  0  0
  -23.0741  -40.7194   -6.3901 C   0  0  0  0  0  0  0  0  0  0  0  0
  -24.0275  -40.5813   -7.5452 C   0  0  0  0  0  0  0  0  0  0  0  0
  -24.7391  -41.8951   -7.7591 C   0  0  0  0  0  0  0  0  0  0  0  0
  -23.7972  -43.0014   -8.1516 C   0  0  0  0  0  0  0  0  0  0  0  0
  -23.4266  -42.9971   -9.5936 C   0  0  0  0  0  0  0  0  0  0  0  0
  -22.1692  -43.5278   -9.8112 O   0  0  0  0  0  0  0  0  0  0  0  0
  -21.0286  -43.8001   -9.0792 C   0  0  0  0  0  0  0  0  0  0  0  0
  -20.7125  -45.1704   -9.1523 C   0  0  0  0  0  0  0  0  0  0  0  0
  -19.6259  -45.7025   -8.5115 C   0  0  0  0  0  0  0  0  0  0  0  0
  -18.8707  -44.8259   -7.8005 C   0  0  0  0  0  0  0  0  0  0  0  0
  -19.1342  -43.4277   -7.6866 C   0  0  0  0  0  0  0  0  0  0  0  0
  -20.2336  -42.9352   -8.3450 C   0  0  0  0  0  0  0  0  0  0  0  0
  -18.1264  -42.7498   -6.8331 C   0  0  0  0  0  0  0  0  0  0  0  0
  -17.6946  -43.4872   -5.8241 O   0  0  0  0  0  0  0  0  0  0  0  0
  -17.5143  -41.5026   -6.8392 N   0  0  0  0  0  0  0  0  0  0  0  0
  -19.3145  -47.0849   -8.5907 N   0  0  0  0  0  0  0  0  0  0  0  0
  -20.4064  -48.0610   -8.5672 C   0  0  0  0  0  0  0  0  0  0  0  0
  -17.6964  -47.6364   -8.7117 S   0  0  0  0  0  6  0  0  0  0  0  0
  -16.9476  -46.7572  -10.0852 C   0  0  0  0  0  0  0  0  0  0  0  0
  -17.6657  -49.0838   -9.0699 O   0  0  0  0  0  0  0  0  0  0  0  0
  -16.9121  -47.4411   -7.4597 O   0  0  0  0  0  0  0  0  0  0  0  0
  -14.2394  -41.3717  -10.8585 C   0  0  0  0  0  0  0  0  0  0  0  0
  -14.1890  -41.2651  -12.2333 C   0  0  0  0  0  0  0  0  0  0  0  0
  -14.0168  -40.0266  -12.8315 C   0  0  0  0  0  0  0  0  0  0  0  0
  1  2  1  0
  2  3  1  0
  2  4  1  0
  4  5  2  0
  5  6  1  0
  6  7  1  0
  7  8  1  0
  8  9  1  0
  9 10  1  0
 10 11  1  6
 10 12  1  0
 12 13  1  1
 13 14  1  0
 14 15  1  1
 14 16  1  0
 16 17  1  0
 17 18  1  0
 18 19  1  0
 19 20  1  0
 20 21  1  0
 21 22  1  0
 22 23  1  0
 23 24  1  0
 24 25  2  0
 25 26  1  0
 26 27  2  0
 27 28  1  0
 28 29  2  0
 28 30  1  0
 30 31  2  0
 30 32  1  0
 26 33  1  0
 33 34  1  0
 33 35  1  0
 35 36  1  0
 35 37  2  0
 35 38  2  0
  6 39  2  0
 39 40  1  0
 40 41  2  0
 29 24  1  0
 32 12  1  0
 41  4  1  0
M  END
$$$$
