
     RDKit          3D

 41 43  0  0  0  0  0  0  0  0999 V2000
  -23.7641  -40.1070   -2.9414 C   0  0  0  0  0  0  0  0  0  0  0  0
  -23.7776  -40.6685   -4.3355 C   0  0  0  0  0  0  0  0  0  0  0  0
  -24.5935  -39.7472   -5.2320 C   0  0  0  0  0  0  0  0  0  0  0  0
  -22.3822  -40.7733   -4.8416 C   0  0  0  0  0  0  0  0  0  0  0  0
  -21.4861  -39.7355   -4.6893 C   0  0  0  0  0  0  0  0  0  0  0  0
  -20.1765  -39.8374   -5.1645 C   0  0  0  0  0  0  0  0  0  0  0  0
  -19.2558  -38.6726   -4.9588 C   0  0  0  0  0  0  0  0  0  0  0  0
  -18.2861  -38.6473   -6.0023 N   0  0  0  0  0  0  0  0  0  0  0  0
  -16.9272  -38.8643   -5.6010 C   0  0  0  0  0  0  0  0  0  0  0  0
  -16.0224  -38.6575   -6.7879 C   0  0  1  0  0  0  0  0  0  0  0  0
  -14.6965  -38.7097   -6.3460 O   0  0  0  0  0  0  0  0  0  0  0  0
  -16.2867  -39.6175   -7.9283 C   0  0  2  0  0  0  0  0  0  0  0  0
  -16.4529  -38.8802   -9.1857 C   0  0  0  0  0  0  0  0  0  0  0  0
  -15.1884  -38.9548  -10.0090 C   0  0  2  0  0  0  0  0  0  0  0  0
  -14.2125  -37.8932   -9.5052 C   0  0  0  0  0  0  0  0  0  0  0  0
  -15.5181  -38.6150  -11.4440 C   0  0  0  0  0  0  0  0  0  0  0  0
  -14.5533  -39.2262  -12.4224 C   0  0  0  0  0  0  0  0  0  0  0  0
  -14.7070  -40.7075  -12.5568 C   0  0  0  0  0  0  0  0  0  0  0  0
  -13.4132  -41.4233  -12.8324 C   0  0  0  0  0  0  0  0  0  0  0  0
  -13.7097  -42.7350  -13.5177 C   0  0  0  0  0  0  0  0  0  0  0  0
  -14.5040  -43.6713  -12.6473 C   0  0  0  0  0  0  0  0  0  0  0  0
  -13.6843  -44.4089  -11.6470 C   0  0  0  0  0  0  0  0  0  0  0  0
  -14.4057  -44.7243  -10.5111 O   0  0  0  0  0  0  0  0  0  0  0  0
  -15.5726  -44.3194   -9.8902 C   0  0  0  0  0  0  0  0  0  0  0  0
  -16.4575  -45.4057   -9.7495 C   0  0  0  0  0  0  0  0  0  0  0  0
  -17.6884  -45.2716   -9.1654 C   0  0  0  0  0  0  0  0  0  0  0  0
  -18.0033  -44.0247   -8.7291 C   0  0  0  0  0  0  0  0  0  0  0  0
  -17.1536  -42.8832   -8.8394 C   0  0  0  0  0  0  0  0  0  0  0  0
  -15.9278  -43.0615   -9.4314 C   0  0  0  0  0  0  0  0  0  0  0  0
  -17.7937  -41.6691   -8.2736 C   0  0  0  0  0  0  0  0  0  0  0  0
  -19.1016  -41.6158   -8.4602 O   0  0  0  0  0  0  0  0  0  0  0  0
  -17.3413  -40.5534   -7.5805 N   0  0  0  0  0  0  0  0  0  0  0  0
  -18.5741  -46.3720   -9.0275 N   0  0  0  0  0  0  0  0  0  0  0  0
  -18.8971  -47.1756  -10.2088 C   0  0  0  0  0  0  0  0  0  0  0  0
  -19.2726  -46.7800   -7.5166 S   0  0  0  0  0  6  0  0  0  0  0  0
  -20.8702  -45.9660   -7.4444 C   0  0  0  0  0  0  0  0  0  0  0  0
  -18.4609  -46.2168   -6.3995 O   0  0  0  0  0  0  0  0  0  0  0  0
  -19.4104  -48.2491   -7.3088 O   0  0  0  0  0  0  0  0  0  0  0  0
  -19.7751  -40.9931   -5.7949 C   0  0  0  0  0  0  0  0  0  0  0  0
  -20.6722  -42.0304   -5.9467 C   0  0  0  0  0  0  0  0  0  0  0  0
  -21.9672  -41.9091   -5.4678 C   0  0  0  0  0  0  0  0  0  0  0  0
  1  2  1  0
  2  3  1  0
  2  4  1  0
  4  5  2  0
  5  6  1  0
  6  7  1  0
  7  8  1  0
  8  9  1  0
  9 10  1  0
 10 11  1  1
 10 12  1  0
 12 13  1  6
 13 14  1  0
 14 15  1  1
 14 16  1  0
 16 17  1  0
 17 18  1  0
 18 19  1  0
 19 20  1  0
 20 21  1  0
 21 22  1  0
 22 23  1  0
 23 24  1  0
 24 25  2  0
 25 26  1  0
 26 27  2  0
 27 28  1  0
 28 29  2  0
 28 30  1  0
 30 31  2  0
 30 32  1  0
 26 33  1  0
 33 34  1  0
 33 35  1  0
 35 36  1  0
 35 37  2  0
 35 38  2  0
  6 39  2  0
 39 40  1  0
 40 41  2  0
 29 24  1  0
 32 12  1  0
 41  4  1  0
M  END
$$$$
