
     RDKit          3D

 38 40  0  0  0  0  0  0  0  0999 V2000
  -20.6500  -38.2026   -9.5452 C   0  0  0  0  0  0  0  0  0  0  0  0
  -20.7130  -39.7218   -9.3081 C   0  0  2  0  0  0  0  0  0  0  0  0
  -21.5312  -40.0006   -8.1446 C   0  0  0  0  0  0  0  0  0  0  0  0
  -22.9538  -40.0345   -7.8799 C   0  0  0  0  0  0  0  0  0  0  0  0
  -23.2481  -41.0086   -6.7488 C   0  0  0  0  0  0  0  0  0  0  0  0
  -22.7678  -40.6822   -5.3923 C   0  0  0  0  0  0  0  0  0  0  0  0
  -23.1600  -41.7215   -4.3214 C   0  0  0  0  0  0  0  0  0  0  0  0
  -22.3249  -41.7315   -3.1149 C   0  0  0  0  0  0  0  0  0  0  0  0
  -21.9811  -42.9495   -2.3580 C   0  0  0  0  0  0  0  0  0  0  0  0
  -20.9514  -43.8034   -2.9602 O   0  0  0  0  0  0  0  0  0  0  0  0
  -20.5347  -43.5075   -4.3106 C   0  0  0  0  0  0  0  0  0  0  0  0
  -19.6133  -42.5434   -4.6291 C   0  0  0  0  0  0  0  0  0  0  0  0
  -19.3524  -42.2735   -5.9619 C   0  0  0  0  0  0  0  0  0  0  0  0
  -20.0804  -43.0922   -6.8740 C   0  0  0  0  0  0  0  0  0  0  0  0
  -20.9704  -44.0633   -6.5709 C   0  0  0  0  0  0  0  0  0  0  0  0
  -21.1555  -44.2204   -5.2816 N   0  0  0  0  0  0  0  0  0  0  0  0
  -18.7429  -41.1246   -6.6261 C   0  0  0  0  0  0  0  0  0  0  0  0
  -19.3632  -39.9962   -6.1620 O   0  0  0  0  0  0  0  0  0  0  0  0
  -17.8091  -40.6469   -7.5402 N   0  0  0  0  0  0  0  0  0  0  0  0
  -18.1307  -40.3638   -8.9619 C   0  0  1  0  0  0  0  0  0  0  0  0
  -19.4470  -40.4310   -9.5395 C   0  0  0  0  0  0  0  0  0  0  0  0
  -17.2091  -39.3676   -9.5251 C   0  0  2  0  0  0  0  0  0  0  0  0
  -17.4337  -39.1741  -10.9303 O   0  0  0  0  0  0  0  0  0  0  0  0
  -15.7472  -39.5256   -9.4059 C   0  0  0  0  0  0  0  0  0  0  0  0
  -15.0959  -38.2943   -9.0176 N   0  0  0  0  0  0  0  0  0  0  0  0
  -15.2320  -37.2582  -10.0197 C   0  0  0  0  0  0  0  0  0  0  0  0
  -16.4079  -37.4584  -10.9031 C   0  0  0  0  0  0  0  0  0  0  0  0
  -15.2303  -35.9021   -9.3529 C   0  0  0  0  0  0  0  0  0  0  0  0
  -13.9895  -37.3384  -10.8477 C   0  0  0  0  0  0  0  0  0  0  0  0
  -13.5972  -36.5734  -11.9253 C   0  0  0  0  0  0  0  0  0  0  0  0
  -12.3717  -37.0189  -12.3627 C   0  0  0  0  0  0  0  0  0  0  0  0
  -11.5450  -36.5027  -13.5013 C   0  0  0  0  0  0  0  0  0  0  0  0
  -10.1141  -36.2783  -13.0614 C   0  0  0  0  0  0  0  0  0  0  0  0
   -9.3297  -35.9118  -14.3265 C   0  0  0  0  0  0  0  0  0  0  0  0
  -10.1103  -35.1632  -12.0615 C   0  0  0  0  0  0  0  0  0  0  0  0
   -9.4935  -37.5022  -12.4759 C   0  0  0  0  0  0  0  0  0  0  0  0
  -12.0499  -38.0194  -11.5652 O   0  0  0  0  0  0  0  0  0  0  0  0
  -12.9666  -38.2251  -10.6813 N   0  0  0  0  0  0  0  0  0  0  0  0
  2  1  1  1
  2  3  1  0
  3  4  1  0
  4  5  1  0
  5  6  1  0
  6  7  1  0
  7  8  1  0
  8  9  1  0
  9 10  1  0
 10 11  1  0
 11 12  1  0
 12 13  2  0
 13 14  1  0
 14 15  2  0
 15 16  1  0
 13 17  1  0
 17 18  2  0
 17 19  1  0
 19 20  1  0
 20 21  1  1
 20 22  1  0
 22 23  1  6
 22 24  1  0
 24 25  1  0
 25 26  1  0
 26 27  1  0
 26 28  1  0
 26 29  1  0
 29 30  1  0
 30 31  2  0
 31 32  1  0
 32 33  1  0
 33 34  1  0
 33 35  1  0
 33 36  1  0
 31 37  1  0
 37 38  1  0
 16 11  2  0
 21  2  1  0
 38 29  2  0
M  END
$$$$
