
     RDKit          3D

 38 40  0  0  0  0  0  0  0  0999 V2000
  -18.7775  -40.9364   -4.3833 C   0  0  0  0  0  0  0  0  0  0  0  0
  -19.3291  -39.8673   -5.3430 C   0  0  2  0  0  0  0  0  0  0  0  0
  -20.5680  -40.3338   -5.9332 C   0  0  0  0  0  0  0  0  0  0  0  0
  -21.9383  -40.4432   -5.4801 C   0  0  0  0  0  0  0  0  0  0  0  0
  -22.8865  -40.3445   -6.6660 C   0  0  0  0  0  0  0  0  0  0  0  0
  -22.8850  -41.4312   -7.6642 C   0  0  0  0  0  0  0  0  0  0  0  0
  -23.9146  -41.2425   -8.7977 C   0  0  0  0  0  0  0  0  0  0  0  0
  -23.6320  -41.9763  -10.0367 C   0  0  0  0  0  0  0  0  0  0  0  0
  -23.9384  -41.4677  -11.3865 C   0  0  0  0  0  0  0  0  0  0  0  0
  -23.0265  -40.4404  -11.9014 O   0  0  0  0  0  0  0  0  0  0  0  0
  -22.0685  -39.8681  -10.9852 C   0  0  0  0  0  0  0  0  0  0  0  0
  -20.8735  -40.4596  -10.6654 C   0  0  0  0  0  0  0  0  0  0  0  0
  -20.0673  -39.8747   -9.7036 C   0  0  0  0  0  0  0  0  0  0  0  0
  -20.5876  -38.6597   -9.1696 C   0  0  0  0  0  0  0  0  0  0  0  0
  -21.7507  -38.0539   -9.4968 C   0  0  0  0  0  0  0  0  0  0  0  0
  -22.4432  -38.7038  -10.4021 N   0  0  0  0  0  0  0  0  0  0  0  0
  -18.9691  -40.3998   -8.8968 C   0  0  0  0  0  0  0  0  0  0  0  0
  -19.3925  -41.5693   -8.3254 O   0  0  0  0  0  0  0  0  0  0  0  0
  -17.6686  -40.2443   -8.4276 N   0  0  0  0  0  0  0  0  0  0  0  0
  -17.3416  -39.6067   -7.1271 C   0  0  1  0  0  0  0  0  0  0  0  0
  -18.3089  -39.1831   -6.1494 C   0  0  0  0  0  0  0  0  0  0  0  0
  -16.0457  -40.0761   -6.6181 C   0  0  2  0  0  0  0  0  0  0  0  0
  -15.8673  -39.7381   -5.2337 O   0  0  0  0  0  0  0  0  0  0  0  0
  -14.7807  -39.6715   -7.2602 C   0  0  0  0  0  0  0  0  0  0  0  0
  -14.9997  -39.0140   -8.5294 N   0  0  0  0  0  0  0  0  0  0  0  0
  -14.0209  -39.3966   -9.5253 C   0  0  0  0  0  0  0  0  0  0  0  0
  -12.6749  -39.6414   -8.9496 C   0  0  0  0  0  0  0  0  0  0  0  0
  -14.5366  -40.5747  -10.3190 C   0  0  0  0  0  0  0  0  0  0  0  0
  -13.9373  -38.2388  -10.4678 C   0  0  0  0  0  0  0  0  0  0  0  0
  -12.9453  -37.9009  -11.3634 C   0  0  0  0  0  0  0  0  0  0  0  0
  -13.3112  -36.7467  -12.0158 C   0  0  0  0  0  0  0  0  0  0  0  0
  -12.5600  -35.9966  -13.0737 C   0  0  0  0  0  0  0  0  0  0  0  0
  -12.9904  -36.4475  -14.4532 C   0  0  0  0  0  0  0  0  0  0  0  0
  -12.7102  -37.9532  -14.5183 C   0  0  0  0  0  0  0  0  0  0  0  0
  -14.4502  -36.1461  -14.6004 C   0  0  0  0  0  0  0  0  0  0  0  0
  -12.2124  -35.7890  -15.5425 C   0  0  0  0  0  0  0  0  0  0  0  0
  -14.4867  -36.4128  -11.5187 O   0  0  0  0  0  0  0  0  0  0  0  0
  -14.8717  -37.2574  -10.6229 N   0  0  0  0  0  0  0  0  0  0  0  0
  2  1  1  6
  2  3  1  0
  3  4  1  0
  4  5  1  0
  5  6  1  0
  6  7  1  0
  7  8  1  0
  8  9  1  0
  9 10  1  0
 10 11  1  0
 11 12  1  0
 12 13  2  0
 13 14  1  0
 14 15  2  0
 15 16  1  0
 13 17  1  0
 17 18  2  0
 17 19  1  0
 19 20  1  0
 20 21  1  1
 20 22  1  0
 22 23  1  1
 22 24  1  0
 24 25  1  0
 25 26  1  0
 26 27  1  0
 26 28  1  0
 26 29  1  0
 29 30  1  0
 30 31  2  0
 31 32  1  0
 32 33  1  0
 33 34  1  0
 33 35  1  0
 33 36  1  0
 31 37  1  0
 37 38  1  0
 16 11  2  0
 21  2  1  0
 38 29  2  0
M  END
$$$$
