
     RDKit          3D

 38 40  0  0  0  0  0  0  0  0999 V2000
  -20.4447  -38.0259   -5.8964 C   0  0  0  0  0  0  0  0  0  0  0  0
  -20.6311  -39.0433   -7.0358 C   0  0  2  0  0  0  0  0  0  0  0  0
  -21.2715  -40.2382   -6.5233 C   0  0  0  0  0  0  0  0  0  0  0  0
  -22.6262  -40.5964   -6.1609 C   0  0  0  0  0  0  0  0  0  0  0  0
  -22.8333  -42.0929   -6.3412 C   0  0  0  0  0  0  0  0  0  0  0  0
  -22.1036  -43.0191   -5.4540 C   0  0  0  0  0  0  0  0  0  0  0  0
  -22.4236  -44.5079   -5.7026 C   0  0  0  0  0  0  0  0  0  0  0  0
  -21.4070  -45.4588   -5.2381 C   0  0  0  0  0  0  0  0  0  0  0  0
  -21.0764  -46.7185   -5.9299 C   0  0  0  0  0  0  0  0  0  0  0  0
  -20.2582  -46.5840   -7.1400 O   0  0  0  0  0  0  0  0  0  0  0  0
  -20.0403  -45.2558   -7.6630 C   0  0  0  0  0  0  0  0  0  0  0  0
  -19.0856  -44.3961   -7.1840 C   0  0  0  0  0  0  0  0  0  0  0  0
  -19.0204  -43.1096   -7.6918 C   0  0  0  0  0  0  0  0  0  0  0  0
  -19.9727  -42.8408   -8.7179 C   0  0  0  0  0  0  0  0  0  0  0  0
  -20.8999  -43.6887   -9.2163 C   0  0  0  0  0  0  0  0  0  0  0  0
  -20.8858  -44.8721   -8.6500 N   0  0  0  0  0  0  0  0  0  0  0  0
  -18.4085  -41.8861   -7.1805 C   0  0  0  0  0  0  0  0  0  0  0  0
  -18.8187  -41.7238   -5.8848 O   0  0  0  0  0  0  0  0  0  0  0  0
  -17.5923  -40.7849   -7.4184 N   0  0  0  0  0  0  0  0  0  0  0  0
  -18.1113  -39.4646   -7.8569 C   0  0  1  0  0  0  0  0  0  0  0  0
  -19.5044  -39.1236   -7.9757 C   0  0  0  0  0  0  0  0  0  0  0  0
  -17.1933  -38.3820   -7.4773 C   0  0  2  0  0  0  0  0  0  0  0  0
  -17.6959  -37.0976   -7.8775 O   0  0  0  0  0  0  0  0  0  0  0  0
  -15.7873  -38.3808   -7.9236 C   0  0  0  0  0  0  0  0  0  0  0  0
  -15.5292  -37.3541   -8.9088 N   0  0  0  0  0  0  0  0  0  0  0  0
  -15.6574  -37.8456  -10.2646 C   0  0  0  0  0  0  0  0  0  0  0  0
  -16.2523  -39.2037  -10.3340 C   0  0  0  0  0  0  0  0  0  0  0  0
  -16.4101  -36.8378  -11.1020 C   0  0  0  0  0  0  0  0  0  0  0  0
  -14.2629  -37.9037  -10.8013 C   0  0  0  0  0  0  0  0  0  0  0  0
  -13.6185  -38.9203  -11.4733 C   0  0  0  0  0  0  0  0  0  0  0  0
  -12.3383  -38.5141  -11.7697 C   0  0  0  0  0  0  0  0  0  0  0  0
  -11.2638  -39.2719  -12.4890 C   0  0  0  0  0  0  0  0  0  0  0  0
  -10.9947  -38.6558  -13.8453 C   0  0  0  0  0  0  0  0  0  0  0  0
  -12.2930  -38.8019  -14.6472 C   0  0  0  0  0  0  0  0  0  0  0  0
  -10.6304  -37.2186  -13.6330 C   0  0  0  0  0  0  0  0  0  0  0  0
   -9.9126  -39.3602  -14.5928 C   0  0  0  0  0  0  0  0  0  0  0  0
  -12.2304  -37.2916  -11.2859 O   0  0  0  0  0  0  0  0  0  0  0  0
  -13.3273  -36.9145  -10.7214 N   0  0  0  0  0  0  0  0  0  0  0  0
  2  1  1  1
  2  3  1  0
  3  4  1  0
  4  5  1  0
  5  6  1  0
  6  7  1  0
  7  8  1  0
  8  9  1  0
  9 10  1  0
 10 11  1  0
 11 12  1  0
 12 13  2  0
 13 14  1  0
 14 15  2  0
 15 16  1  0
 13 17  1  0
 17 18  2  0
 17 19  1  0
 19 20  1  0
 20 21  1  1
 20 22  1  0
 22 23  1  6
 22 24  1  0
 24 25  1  0
 25 26  1  0
 26 27  1  0
 26 28  1  0
 26 29  1  0
 29 30  1  0
 30 31  2  0
 31 32  1  0
 32 33  1  0
 33 34  1  0
 33 35  1  0
 33 36  1  0
 31 37  1  0
 37 38  1  0
 16 11  2  0
 21  2  1  0
 38 29  2  0
M  END
$$$$
