
     RDKit          3D

 38 40  0  0  0  0  0  0  0  0999 V2000
  -19.1692  -41.7472  -11.3555 C   0  0  0  0  0  0  0  0  0  0  0  0
  -19.3058  -42.4389   -9.9876 C   0  0  2  0  0  0  0  0  0  0  0  0
  -20.4916  -41.9523   -9.3109 C   0  0  0  0  0  0  0  0  0  0  0  0
  -21.9121  -42.2033   -9.4306 C   0  0  0  0  0  0  0  0  0  0  0  0
  -22.5946  -41.9723   -8.0905 C   0  0  0  0  0  0  0  0  0  0  0  0
  -22.6465  -40.5997   -7.5512 C   0  0  0  0  0  0  0  0  0  0  0  0
  -23.3975  -40.4817   -6.2086 C   0  0  0  0  0  0  0  0  0  0  0  0
  -23.0624  -39.3050   -5.3985 C   0  0  0  0  0  0  0  0  0  0  0  0
  -23.0126  -39.3035   -3.9246 C   0  0  0  0  0  0  0  0  0  0  0  0
  -21.8289  -39.9314   -3.3274 O   0  0  0  0  0  0  0  0  0  0  0  0
  -20.9483  -40.6748   -4.1972 C   0  0  0  0  0  0  0  0  0  0  0  0
  -19.9799  -40.0952   -4.9760 C   0  0  0  0  0  0  0  0  0  0  0  0
  -19.2505  -40.8874   -5.8464 C   0  0  0  0  0  0  0  0  0  0  0  0
  -19.5890  -42.2712   -5.7952 C   0  0  0  0  0  0  0  0  0  0  0  0
  -20.5224  -42.8569   -5.0125 C   0  0  0  0  0  0  0  0  0  0  0  0
  -21.1660  -42.0115   -4.2428 N   0  0  0  0  0  0  0  0  0  0  0  0
  -18.4468  -40.5649   -7.0223 C   0  0  0  0  0  0  0  0  0  0  0  0
  -19.2006  -39.7636   -7.8366 O   0  0  0  0  0  0  0  0  0  0  0  0
  -17.2460  -40.7127   -7.7091 N   0  0  0  0  0  0  0  0  0  0  0  0
  -17.0260  -41.7439   -8.7546 C   0  0  1  0  0  0  0  0  0  0  0  0
  -18.0389  -42.6281   -9.2676 C   0  0  0  0  0  0  0  0  0  0  0  0
  -15.9681  -41.3343   -9.6882 C   0  0  2  0  0  0  0  0  0  0  0  0
  -15.7412  -42.3283  -10.6996 O   0  0  0  0  0  0  0  0  0  0  0  0
  -14.6177  -40.9855   -9.2076 C   0  0  0  0  0  0  0  0  0  0  0  0
  -14.4318  -39.5558   -9.0949 N   0  0  0  0  0  0  0  0  0  0  0  0
  -13.3905  -39.0639   -9.9723 C   0  0  0  0  0  0  0  0  0  0  0  0
  -12.1004  -38.8431   -9.2723 C   0  0  0  0  0  0  0  0  0  0  0  0
  -13.2549  -39.9815  -11.1652 C   0  0  0  0  0  0  0  0  0  0  0  0
  -13.8892  -37.7513  -10.4863 C   0  0  0  0  0  0  0  0  0  0  0  0
  -15.0029  -37.0263  -10.1194 C   0  0  0  0  0  0  0  0  0  0  0  0
  -15.0507  -35.8758  -10.8715 C   0  0  0  0  0  0  0  0  0  0  0  0
  -16.0712  -34.7789  -10.8320 C   0  0  0  0  0  0  0  0  0  0  0  0
  -15.4513  -33.4601  -11.2420 C   0  0  0  0  0  0  0  0  0  0  0  0
  -16.6185  -32.5214  -11.5681 C   0  0  0  0  0  0  0  0  0  0  0  0
  -14.6376  -32.9569  -10.0895 C   0  0  0  0  0  0  0  0  0  0  0  0
  -14.6030  -33.5782  -12.4635 C   0  0  0  0  0  0  0  0  0  0  0  0
  -13.9944  -35.9208  -11.6606 O   0  0  0  0  0  0  0  0  0  0  0  0
  -13.3064  -36.9932  -11.4589 N   0  0  0  0  0  0  0  0  0  0  0  0
  2  1  1  6
  2  3  1  0
  3  4  1  0
  4  5  1  0
  5  6  1  0
  6  7  1  0
  7  8  1  0
  8  9  1  0
  9 10  1  0
 10 11  1  0
 11 12  1  0
 12 13  2  0
 13 14  1  0
 14 15  2  0
 15 16  1  0
 13 17  1  0
 17 18  2  0
 17 19  1  0
 19 20  1  0
 20 21  1  6
 20 22  1  0
 22 23  1  6
 22 24  1  0
 24 25  1  0
 25 26  1  0
 26 27  1  0
 26 28  1  0
 26 29  1  0
 29 30  1  0
 30 31  2  0
 31 32  1  0
 32 33  1  0
 33 34  1  0
 33 35  1  0
 33 36  1  0
 31 37  1  0
 37 38  1  0
 16 11  2  0
 21  2  1  0
 38 29  2  0
M  END
$$$$
