
     RDKit          3D

 38 40  0  0  0  0  0  0  0  0999 V2000
  -19.5684  -37.4329   -6.9064 C   0  0  0  0  0  0  0  0  0  0  0  0
  -19.9426  -38.6412   -7.7828 C   0  0  2  0  0  0  0  0  0  0  0  0
  -20.9568  -39.4328   -7.1153 C   0  0  0  0  0  0  0  0  0  0  0  0
  -22.3845  -39.3053   -6.9140 C   0  0  0  0  0  0  0  0  0  0  0  0
  -23.0122  -40.6830   -6.7623 C   0  0  0  0  0  0  0  0  0  0  0  0
  -22.6803  -41.4830   -5.5676 C   0  0  0  0  0  0  0  0  0  0  0  0
  -23.4065  -42.8428   -5.5023 C   0  0  0  0  0  0  0  0  0  0  0  0
  -22.7698  -43.8592   -4.6567 C   0  0  0  0  0  0  0  0  0  0  0  0
  -22.7680  -45.3025   -4.9589 C   0  0  0  0  0  0  0  0  0  0  0  0
  -21.8368  -45.7316   -6.0081 O   0  0  0  0  0  0  0  0  0  0  0  0
  -21.1830  -44.7085   -6.7896 C   0  0  0  0  0  0  0  0  0  0  0  0
  -20.0642  -44.0326   -6.3755 C   0  0  0  0  0  0  0  0  0  0  0  0
  -19.5693  -43.0036   -7.1585 C   0  0  0  0  0  0  0  0  0  0  0  0
  -20.2962  -42.7908   -8.3662 C   0  0  0  0  0  0  0  0  0  0  0  0
  -21.3835  -43.4684   -8.7969 C   0  0  0  0  0  0  0  0  0  0  0  0
  -21.7778  -44.4068   -7.9692 N   0  0  0  0  0  0  0  0  0  0  0  0
  -18.6701  -41.8924   -6.8594 C   0  0  0  0  0  0  0  0  0  0  0  0
  -19.1329  -41.2728   -5.7301 O   0  0  0  0  0  0  0  0  0  0  0  0
  -17.5429  -41.1570   -7.2120 N   0  0  0  0  0  0  0  0  0  0  0  0
  -17.5991  -39.9234   -8.0365 C   0  0  1  0  0  0  0  0  0  0  0  0
  -18.8084  -39.2745   -8.4695 C   0  0  0  0  0  0  0  0  0  0  0  0
  -16.4391  -39.0597   -7.7772 C   0  0  2  0  0  0  0  0  0  0  0  0
  -16.7791  -37.6691   -7.8908 O   0  0  0  0  0  0  0  0  0  0  0  0
  -15.1943  -39.1976   -8.5568 C   0  0  0  0  0  0  0  0  0  0  0  0
  -14.8455  -40.5822   -8.7861 N   0  0  0  0  0  0  0  0  0  0  0  0
  -13.8279  -40.7334   -9.8048 C   0  0  0  0  0  0  0  0  0  0  0  0
  -12.5487  -41.2640   -9.2707 C   0  0  0  0  0  0  0  0  0  0  0  0
  -14.3699  -41.5628  -10.9459 C   0  0  0  0  0  0  0  0  0  0  0  0
  -13.5915  -39.3573  -10.3399 C   0  0  0  0  0  0  0  0  0  0  0  0
  -14.2110  -38.6971  -11.3795 C   0  0  0  0  0  0  0  0  0  0  0  0
  -13.6561  -37.4447  -11.5028 C   0  0  0  0  0  0  0  0  0  0  0  0
  -13.9990  -36.3666  -12.4858 C   0  0  0  0  0  0  0  0  0  0  0  0
  -12.8110  -36.0556  -13.3709 C   0  0  0  0  0  0  0  0  0  0  0  0
  -13.3423  -35.1730  -14.5061 C   0  0  0  0  0  0  0  0  0  0  0  0
  -11.7931  -35.3387  -12.5383 C   0  0  0  0  0  0  0  0  0  0  0  0
  -12.2133  -37.2782  -13.9821 C   0  0  0  0  0  0  0  0  0  0  0  0
  -12.7346  -37.3681  -10.5618 O   0  0  0  0  0  0  0  0  0  0  0  0
  -12.6762  -38.4589   -9.8757 N   0  0  0  0  0  0  0  0  0  0  0  0
  2  1  1  1
  2  3  1  0
  3  4  1  0
  4  5  1  0
  5  6  1  0
  6  7  1  0
  7  8  1  0
  8  9  1  0
  9 10  1  0
 10 11  1  0
 11 12  1  0
 12 13  2  0
 13 14  1  0
 14 15  2  0
 15 16  1  0
 13 17  1  0
 17 18  2  0
 17 19  1  0
 19 20  1  0
 20 21  1  1
 20 22  1  0
 22 23  1  6
 22 24  1  0
 24 25  1  0
 25 26  1  0
 26 27  1  0
 26 28  1  0
 26 29  1  0
 29 30  1  0
 30 31  2  0
 31 32  1  0
 32 33  1  0
 33 34  1  0
 33 35  1  0
 33 36  1  0
 31 37  1  0
 37 38  1  0
 16 11  2  0
 21  2  1  0
 38 29  2  0
M  END
$$$$
