
     RDKit          3D

 38 40  0  0  0  0  0  0  0  0999 V2000
  -15.0967  -40.1822  -11.3672 C   0  0  0  0  0  0  0  0  0  0  0  0
  -14.8213  -41.3684  -10.4264 C   0  0  2  0  0  0  0  0  0  0  0  0
  -15.4824  -42.5554  -10.9312 C   0  0  0  0  0  0  0  0  0  0  0  0
  -15.2111  -43.5041  -11.9901 C   0  0  0  0  0  0  0  0  0  0  0  0
  -15.8139  -44.8570  -11.6417 C   0  0  0  0  0  0  0  0  0  0  0  0
  -17.2831  -44.9833  -11.5883 C   0  0  0  0  0  0  0  0  0  0  0  0
  -17.7784  -46.4086  -11.2660 C   0  0  0  0  0  0  0  0  0  0  0  0
  -19.1357  -46.4963  -10.7150 C   0  0  0  0  0  0  0  0  0  0  0  0
  -19.5546  -47.4843   -9.7035 C   0  0  0  0  0  0  0  0  0  0  0  0
  -19.1189  -47.2118   -8.3295 O   0  0  0  0  0  0  0  0  0  0  0  0
  -18.1575  -46.1544   -8.1237 C   0  0  0  0  0  0  0  0  0  0  0  0
  -18.4904  -44.8263   -8.0506 C   0  0  0  0  0  0  0  0  0  0  0  0
  -17.4824  -43.8829   -7.9453 C   0  0  0  0  0  0  0  0  0  0  0  0
  -16.1706  -44.4379   -7.8882 C   0  0  0  0  0  0  0  0  0  0  0  0
  -15.8328  -45.7459   -7.9322 C   0  0  0  0  0  0  0  0  0  0  0  0
  -16.8632  -46.5492   -8.0525 N   0  0  0  0  0  0  0  0  0  0  0  0
  -17.4566  -42.4459   -8.2045 C   0  0  0  0  0  0  0  0  0  0  0  0
  -17.9962  -42.2354   -9.4447 O   0  0  0  0  0  0  0  0  0  0  0  0
  -17.1175  -41.1715   -7.7613 N   0  0  0  0  0  0  0  0  0  0  0  0
  -15.8318  -40.5076   -8.0943 C   0  0  1  0  0  0  0  0  0  0  0  0
  -14.8408  -41.0330   -8.9959 C   0  0  0  0  0  0  0  0  0  0  0  0
  -15.9576  -39.0453   -8.0260 C   0  0  2  0  0  0  0  0  0  0  0  0
  -14.7200  -38.4251   -7.6437 O   0  0  0  0  0  0  0  0  0  0  0  0
  -16.9699  -38.4048   -7.1650 C   0  0  0  0  0  0  0  0  0  0  0  0
  -18.2100  -39.1482   -7.1364 N   0  0  0  0  0  0  0  0  0  0  0  0
  -19.2823  -38.4593   -7.8233 C   0  0  0  0  0  0  0  0  0  0  0  0
  -19.5808  -37.1270   -7.2411 C   0  0  0  0  0  0  0  0  0  0  0  0
  -18.9787  -38.3925   -9.3022 C   0  0  0  0  0  0  0  0  0  0  0  0
  -20.4847  -39.3338   -7.6641 C   0  0  0  0  0  0  0  0  0  0  0  0
  -21.8205  -38.9964   -7.6195 C   0  0  0  0  0  0  0  0  0  0  0  0
  -22.5625  -40.1435   -7.4604 C   0  0  0  0  0  0  0  0  0  0  0  0
  -24.0513  -40.2833   -7.3588 C   0  0  0  0  0  0  0  0  0  0  0  0
  -24.4983  -40.1821   -5.9161 C   0  0  0  0  0  0  0  0  0  0  0  0
  -25.9635  -39.7330   -5.9523 C   0  0  0  0  0  0  0  0  0  0  0  0
  -24.3461  -41.5351   -5.2920 C   0  0  0  0  0  0  0  0  0  0  0  0
  -23.7262  -39.1652   -5.1445 C   0  0  0  0  0  0  0  0  0  0  0  0
  -21.6885  -41.1305   -7.4123 O   0  0  0  0  0  0  0  0  0  0  0  0
  -20.4812  -40.6909   -7.5276 N   0  0  0  0  0  0  0  0  0  0  0  0
  2  1  1  6
  2  3  1  0
  3  4  1  0
  4  5  1  0
  5  6  1  0
  6  7  1  0
  7  8  1  0
  8  9  1  0
  9 10  1  0
 10 11  1  0
 11 12  1  0
 12 13  2  0
 13 14  1  0
 14 15  2  0
 15 16  1  0
 13 17  1  0
 17 18  2  0
 17 19  1  0
 19 20  1  0
 20 21  1  6
 20 22  1  0
 22 23  1  1
 22 24  1  0
 24 25  1  0
 25 26  1  0
 26 27  1  0
 26 28  1  0
 26 29  1  0
 29 30  1  0
 30 31  2  0
 31 32  1  0
 32 33  1  0
 33 34  1  0
 33 35  1  0
 33 36  1  0
 31 37  1  0
 37 38  1  0
 16 11  2  0
 21  2  1  0
 38 29  2  0
M  END
$$$$
