
     RDKit          3D

 38 40  0  0  0  0  0  0  0  0999 V2000
  -19.9045  -37.7866   -6.6283 C   0  0  0  0  0  0  0  0  0  0  0  0
  -20.3226  -39.0175   -7.4517 C   0  0  2  0  0  0  0  0  0  0  0  0
  -21.1379  -39.8960   -6.6367 C   0  0  0  0  0  0  0  0  0  0  0  0
  -22.5154  -39.8913   -6.1920 C   0  0  0  0  0  0  0  0  0  0  0  0
  -22.9915  -41.3181   -5.9628 C   0  0  0  0  0  0  0  0  0  0  0  0
  -22.3943  -42.0934   -4.8585 C   0  0  0  0  0  0  0  0  0  0  0  0
  -22.9835  -43.5103   -4.6971 C   0  0  0  0  0  0  0  0  0  0  0  0
  -22.1291  -44.4735   -3.9930 C   0  0  0  0  0  0  0  0  0  0  0  0
  -22.0598  -45.9098   -4.3198 C   0  0  0  0  0  0  0  0  0  0  0  0
  -21.2905  -46.2527   -5.5209 O   0  0  0  0  0  0  0  0  0  0  0  0
  -20.8677  -45.1736   -6.3821 C   0  0  0  0  0  0  0  0  0  0  0  0
  -19.7541  -44.4074   -6.1517 C   0  0  0  0  0  0  0  0  0  0  0  0
  -19.4880  -43.3358   -6.9872 C   0  0  0  0  0  0  0  0  0  0  0  0
  -20.4267  -43.1790   -8.0484 C   0  0  0  0  0  0  0  0  0  0  0  0
  -21.5120  -43.9441   -8.3006 C   0  0  0  0  0  0  0  0  0  0  0  0
  -21.6792  -44.9171   -7.4365 N   0  0  0  0  0  0  0  0  0  0  0  0
  -18.6458  -42.1539   -6.8240 C   0  0  0  0  0  0  0  0  0  0  0  0
  -18.9573  -41.5820   -5.6201 O   0  0  0  0  0  0  0  0  0  0  0  0
  -17.6607  -41.3236   -7.3492 N   0  0  0  0  0  0  0  0  0  0  0  0
  -17.9596  -40.0948   -8.1274 C   0  0  1  0  0  0  0  0  0  0  0  0
  -19.2748  -39.5486   -8.3345 C   0  0  0  0  0  0  0  0  0  0  0  0
  -16.8478  -39.1372   -8.0528 C   0  0  2  0  0  0  0  0  0  0  0  0
  -16.8839  -38.1991   -9.1395 O   0  0  0  0  0  0  0  0  0  0  0  0
  -15.4462  -39.5954   -8.0105 C   0  0  0  0  0  0  0  0  0  0  0  0
  -14.6127  -38.8875   -8.9567 N   0  0  0  0  0  0  0  0  0  0  0  0
  -13.8779  -39.7843   -9.8240 C   0  0  0  0  0  0  0  0  0  0  0  0
  -12.9945  -40.7155   -9.0786 C   0  0  0  0  0  0  0  0  0  0  0  0
  -14.8381  -40.5039  -10.7425 C   0  0  0  0  0  0  0  0  0  0  0  0
  -13.0302  -38.9023  -10.6838 C   0  0  0  0  0  0  0  0  0  0  0  0
  -13.2358  -37.5988  -11.0826 C   0  0  0  0  0  0  0  0  0  0  0  0
  -12.1801  -37.2045  -11.8710 C   0  0  0  0  0  0  0  0  0  0  0  0
  -11.9570  -35.8792  -12.5345 C   0  0  0  0  0  0  0  0  0  0  0  0
  -11.7763  -36.0549  -14.0271 C   0  0  0  0  0  0  0  0  0  0  0  0
  -11.4903  -34.6584  -14.5910 C   0  0  0  0  0  0  0  0  0  0  0  0
  -10.6258  -36.9890  -14.2438 C   0  0  0  0  0  0  0  0  0  0  0  0
  -13.0023  -36.5776  -14.6975 C   0  0  0  0  0  0  0  0  0  0  0  0
  -11.3738  -38.2467  -11.9357 O   0  0  0  0  0  0  0  0  0  0  0  0
  -11.8408  -39.2408  -11.2590 N   0  0  0  0  0  0  0  0  0  0  0  0
  2  1  1  1
  2  3  1  0
  3  4  1  0
  4  5  1  0
  5  6  1  0
  6  7  1  0
  7  8  1  0
  8  9  1  0
  9 10  1  0
 10 11  1  0
 11 12  1  0
 12 13  2  0
 13 14  1  0
 14 15  2  0
 15 16  1  0
 13 17  1  0
 17 18  2  0
 17 19  1  0
 19 20  1  0
 20 21  1  1
 20 22  1  0
 22 23  1  6
 22 24  1  0
 24 25  1  0
 25 26  1  0
 26 27  1  0
 26 28  1  0
 26 29  1  0
 29 30  1  0
 30 31  2  0
 31 32  1  0
 32 33  1  0
 33 34  1  0
 33 35  1  0
 33 36  1  0
 31 37  1  0
 37 38  1  0
 16 11  2  0
 21  2  1  0
 38 29  2  0
M  END
$$$$
