
     RDKit          3D

 38 40  0  0  0  0  0  0  0  0999 V2000
  -19.2595  -37.5048   -6.8311 C   0  0  0  0  0  0  0  0  0  0  0  0
  -19.4807  -38.6269   -7.8607 C   0  0  2  0  0  0  0  0  0  0  0  0
  -20.4950  -39.5415   -7.3754 C   0  0  0  0  0  0  0  0  0  0  0  0
  -21.9398  -39.5148   -7.2923 C   0  0  0  0  0  0  0  0  0  0  0  0
  -22.4889  -40.9328   -7.3448 C   0  0  0  0  0  0  0  0  0  0  0  0
  -22.2087  -41.8412   -6.2162 C   0  0  0  0  0  0  0  0  0  0  0  0
  -22.8496  -43.2372   -6.3612 C   0  0  0  0  0  0  0  0  0  0  0  0
  -22.2230  -44.3051   -5.5735 C   0  0  0  0  0  0  0  0  0  0  0  0
  -22.1036  -45.7038   -6.0253 C   0  0  0  0  0  0  0  0  0  0  0  0
  -21.0618  -45.9627   -7.0251 O   0  0  0  0  0  0  0  0  0  0  0  0
  -20.4110  -44.8253   -7.6314 C   0  0  0  0  0  0  0  0  0  0  0  0
  -19.3765  -44.1398   -7.0482 C   0  0  0  0  0  0  0  0  0  0  0  0
  -18.8839  -43.0049   -7.6699 C   0  0  0  0  0  0  0  0  0  0  0  0
  -19.5185  -42.6992   -8.9092 C   0  0  0  0  0  0  0  0  0  0  0  0
  -20.5200  -43.3828   -9.5062 C   0  0  0  0  0  0  0  0  0  0  0  0
  -20.9222  -44.4273   -8.8215 N   0  0  0  0  0  0  0  0  0  0  0  0
  -18.0859  -41.8866   -7.1745 C   0  0  0  0  0  0  0  0  0  0  0  0
  -18.6809  -41.4222   -6.0327 O   0  0  0  0  0  0  0  0  0  0  0  0
  -16.9822  -41.0567   -7.3435 N   0  0  0  0  0  0  0  0  0  0  0  0
  -17.0471  -39.7441   -8.0347 C   0  0  1  0  0  0  0  0  0  0  0  0
  -18.2545  -39.1177   -8.5047 C   0  0  0  0  0  0  0  0  0  0  0  0
  -15.9706  -38.8529   -7.5812 C   0  0  2  0  0  0  0  0  0  0  0  0
  -16.4782  -37.7772   -6.7764 O   0  0  0  0  0  0  0  0  0  0  0  0
  -15.0664  -38.1955   -8.5437 C   0  0  0  0  0  0  0  0  0  0  0  0
  -15.0400  -38.8765   -9.8192 N   0  0  0  0  0  0  0  0  0  0  0  0
  -13.6992  -39.2497  -10.2179 C   0  0  0  0  0  0  0  0  0  0  0  0
  -12.8415  -38.0793  -10.5304 C   0  0  0  0  0  0  0  0  0  0  0  0
  -13.0901  -40.1535   -9.1710 C   0  0  0  0  0  0  0  0  0  0  0  0
  -13.8651  -40.0688  -11.4578 C   0  0  0  0  0  0  0  0  0  0  0  0
  -13.9487  -39.6684  -12.7743 C   0  0  0  0  0  0  0  0  0  0  0  0
  -14.0973  -40.7820  -13.5678 C   0  0  0  0  0  0  0  0  0  0  0  0
  -14.2299  -40.8521  -15.0590 C   0  0  0  0  0  0  0  0  0  0  0  0
  -12.9082  -41.2280  -15.6940 C   0  0  0  0  0  0  0  0  0  0  0  0
  -12.5532  -42.6178  -15.1532 C   0  0  0  0  0  0  0  0  0  0  0  0
  -13.0992  -41.2408  -17.1795 C   0  0  0  0  0  0  0  0  0  0  0  0
  -11.8049  -40.2956  -15.3209 C   0  0  0  0  0  0  0  0  0  0  0  0
  -14.1013  -41.8109  -12.7422 O   0  0  0  0  0  0  0  0  0  0  0  0
  -13.9688  -41.4274  -11.5177 N   0  0  0  0  0  0  0  0  0  0  0  0
  2  1  1  1
  2  3  1  0
  3  4  1  0
  4  5  1  0
  5  6  1  0
  6  7  1  0
  7  8  1  0
  8  9  1  0
  9 10  1  0
 10 11  1  0
 11 12  1  0
 12 13  2  0
 13 14  1  0
 14 15  2  0
 15 16  1  0
 13 17  1  0
 17 18  2  0
 17 19  1  0
 19 20  1  0
 20 21  1  1
 20 22  1  0
 22 23  1  6
 22 24  1  0
 24 25  1  0
 25 26  1  0
 26 27  1  0
 26 28  1  0
 26 29  1  0
 29 30  1  0
 30 31  2  0
 31 32  1  0
 32 33  1  0
 33 34  1  0
 33 35  1  0
 33 36  1  0
 31 37  1  0
 37 38  1  0
 16 11  2  0
 21  2  1  0
 38 29  2  0
M  END
$$$$
