
     RDKit          3D

 38 40  0  0  0  0  0  0  0  0999 V2000
  -15.3780  -43.2098   -8.7504 C   0  0  0  0  0  0  0  0  0  0  0  0
  -16.2673  -43.2834   -7.4967 C   0  0  2  0  0  0  0  0  0  0  0  0
  -17.4014  -44.1488   -7.7529 C   0  0  0  0  0  0  0  0  0  0  0  0
  -17.6006  -45.5811   -7.8155 C   0  0  0  0  0  0  0  0  0  0  0  0
  -19.0363  -45.9221   -7.4448 C   0  0  0  0  0  0  0  0  0  0  0  0
  -20.1201  -45.4976   -8.3518 C   0  0  0  0  0  0  0  0  0  0  0  0
  -21.5275  -45.9339   -7.8941 C   0  0  0  0  0  0  0  0  0  0  0  0
  -22.6410  -45.1489   -8.4394 C   0  0  0  0  0  0  0  0  0  0  0  0
  -23.8750  -44.8372   -7.6946 C   0  0  0  0  0  0  0  0  0  0  0  0
  -23.7569  -43.7842   -6.6801 O   0  0  0  0  0  0  0  0  0  0  0  0
  -22.4332  -43.3123   -6.3484 C   0  0  0  0  0  0  0  0  0  0  0  0
  -21.7512  -42.3781   -7.0847 C   0  0  0  0  0  0  0  0  0  0  0  0
  -20.4492  -42.0626   -6.7348 C   0  0  0  0  0  0  0  0  0  0  0  0
  -19.9736  -42.7531   -5.5819 C   0  0  0  0  0  0  0  0  0  0  0  0
  -20.6460  -43.6553   -4.8331 C   0  0  0  0  0  0  0  0  0  0  0  0
  -21.8616  -43.8932   -5.2657 N   0  0  0  0  0  0  0  0  0  0  0  0
  -19.3641  -41.4257   -7.4762 C   0  0  0  0  0  0  0  0  0  0  0  0
  -19.2511  -42.0639   -8.6818 O   0  0  0  0  0  0  0  0  0  0  0  0
  -18.3681  -40.4550   -7.5115 N   0  0  0  0  0  0  0  0  0  0  0  0
  -16.9592  -40.7178   -7.1233 C   0  0  1  0  0  0  0  0  0  0  0  0
  -16.4245  -42.0094   -6.7816 C   0  0  0  0  0  0  0  0  0  0  0  0
  -16.0443  -39.7734   -7.7789 C   0  0  2  0  0  0  0  0  0  0  0  0
  -14.8832  -39.5164   -6.9737 O   0  0  0  0  0  0  0  0  0  0  0  0
  -16.5007  -38.4357   -8.2014 C   0  0  0  0  0  0  0  0  0  0  0  0
  -17.8763  -38.4451   -8.6475 N   0  0  0  0  0  0  0  0  0  0  0  0
  -18.1609  -37.3757   -9.5811 C   0  0  0  0  0  0  0  0  0  0  0  0
  -18.9905  -37.8164  -10.7303 C   0  0  0  0  0  0  0  0  0  0  0  0
  -18.7656  -36.2037   -8.8433 C   0  0  0  0  0  0  0  0  0  0  0  0
  -16.8292  -36.9283  -10.0932 C   0  0  0  0  0  0  0  0  0  0  0  0
  -16.5057  -36.2980  -11.2758 C   0  0  0  0  0  0  0  0  0  0  0  0
  -15.1476  -36.0833  -11.3068 C   0  0  0  0  0  0  0  0  0  0  0  0
  -14.3317  -35.4331  -12.3828 C   0  0  0  0  0  0  0  0  0  0  0  0
  -14.2536  -36.3245  -13.6038 C   0  0  0  0  0  0  0  0  0  0  0  0
  -13.5005  -37.5858  -13.1657 C   0  0  0  0  0  0  0  0  0  0  0  0
  -15.6536  -36.6343  -14.0367 C   0  0  0  0  0  0  0  0  0  0  0  0
  -13.4904  -35.7008  -14.7237 C   0  0  0  0  0  0  0  0  0  0  0  0
  -14.6825  -36.5735  -10.1738 O   0  0  0  0  0  0  0  0  0  0  0  0
  -15.6323  -37.0676   -9.4542 N   0  0  0  0  0  0  0  0  0  0  0  0
  2  1  1  6
  2  3  1  0
  3  4  1  0
  4  5  1  0
  5  6  1  0
  6  7  1  0
  7  8  1  0
  8  9  1  0
  9 10  1  0
 10 11  1  0
 11 12  1  0
 12 13  2  0
 13 14  1  0
 14 15  2  0
 15 16  1  0
 13 17  1  0
 17 18  2  0
 17 19  1  0
 19 20  1  0
 20 21  1  6
 20 22  1  0
 22 23  1  1
 22 24  1  0
 24 25  1  0
 25 26  1  0
 26 27  1  0
 26 28  1  0
 26 29  1  0
 29 30  1  0
 30 31  2  0
 31 32  1  0
 32 33  1  0
 33 34  1  0
 33 35  1  0
 33 36  1  0
 31 37  1  0
 37 38  1  0
 16 11  2  0
 21  2  1  0
 38 29  2  0
M  END
$$$$
