
     RDKit          3D

 38 40  0  0  0  0  0  0  0  0999 V2000
  -17.0621  -43.7822   -8.0417 C   0  0  0  0  0  0  0  0  0  0  0  0
  -17.9329  -43.2934   -6.8708 C   0  0  2  0  0  0  0  0  0  0  0  0
  -19.3252  -43.5932   -7.1397 C   0  0  0  0  0  0  0  0  0  0  0  0
  -20.1446  -44.7847   -7.0774 C   0  0  0  0  0  0  0  0  0  0  0  0
  -21.5924  -44.4052   -6.8037 C   0  0  0  0  0  0  0  0  0  0  0  0
  -22.3372  -43.6658   -7.8410 C   0  0  0  0  0  0  0  0  0  0  0  0
  -23.8056  -43.3723   -7.4691 C   0  0  0  0  0  0  0  0  0  0  0  0
  -24.4275  -42.2534   -8.1863 C   0  0  0  0  0  0  0  0  0  0  0  0
  -25.4150  -41.3355   -7.5887 C   0  0  0  0  0  0  0  0  0  0  0  0
  -24.8718  -40.3225   -6.6771 O   0  0  0  0  0  0  0  0  0  0  0  0
  -23.4897  -40.4461   -6.2776 C   0  0  0  0  0  0  0  0  0  0  0  0
  -22.4353  -40.0127   -7.0395 C   0  0  0  0  0  0  0  0  0  0  0  0
  -21.1436  -40.2632   -6.6084 C   0  0  0  0  0  0  0  0  0  0  0  0
  -21.0698  -40.9383   -5.3550 C   0  0  0  0  0  0  0  0  0  0  0  0
  -22.1017  -41.3458   -4.5831 C   0  0  0  0  0  0  0  0  0  0  0  0
  -23.2786  -41.0753   -5.0962 N   0  0  0  0  0  0  0  0  0  0  0  0
  -19.8628  -40.2727   -7.3099 C   0  0  0  0  0  0  0  0  0  0  0  0
  -20.0065  -41.0441   -8.4314 O   0  0  0  0  0  0  0  0  0  0  0  0
  -18.5362  -39.8557   -7.3527 N   0  0  0  0  0  0  0  0  0  0  0  0
  -17.4103  -40.6619   -6.8168 C   0  0  1  0  0  0  0  0  0  0  0  0
  -17.5256  -42.0010   -6.3025 C   0  0  0  0  0  0  0  0  0  0  0  0
  -16.1462  -40.3121   -7.4789 C   0  0  2  0  0  0  0  0  0  0  0  0
  -15.0368  -41.0262   -6.9118 O   0  0  0  0  0  0  0  0  0  0  0  0
  -15.6832  -38.9133   -7.5515 C   0  0  0  0  0  0  0  0  0  0  0  0
  -15.0693  -38.6079   -8.8247 N   0  0  0  0  0  0  0  0  0  0  0  0
  -16.0121  -38.0524   -9.7728 C   0  0  0  0  0  0  0  0  0  0  0  0
  -17.2015  -38.9159   -9.9797 C   0  0  0  0  0  0  0  0  0  0  0  0
  -16.3796  -36.6459   -9.3601 C   0  0  0  0  0  0  0  0  0  0  0  0
  -15.2645  -37.9468  -11.0635 C   0  0  0  0  0  0  0  0  0  0  0  0
  -15.1666  -36.8887  -11.9416 C   0  0  0  0  0  0  0  0  0  0  0  0
  -14.3648  -37.2599  -12.9957 C   0  0  0  0  0  0  0  0  0  0  0  0
  -13.9668  -36.4512  -14.1931 C   0  0  0  0  0  0  0  0  0  0  0  0
  -12.7653  -35.5867  -13.8762 C   0  0  0  0  0  0  0  0  0  0  0  0
  -12.4145  -34.8490  -15.1734 C   0  0  0  0  0  0  0  0  0  0  0  0
  -13.1567  -34.6383  -12.7850 C   0  0  0  0  0  0  0  0  0  0  0  0
  -11.5737  -36.3854  -13.4666 C   0  0  0  0  0  0  0  0  0  0  0  0
  -13.9998  -38.5029  -12.7463 O   0  0  0  0  0  0  0  0  0  0  0  0
  -14.5053  -38.9242  -11.6368 N   0  0  0  0  0  0  0  0  0  0  0  0
  2  1  1  6
  2  3  1  0
  3  4  1  0
  4  5  1  0
  5  6  1  0
  6  7  1  0
  7  8  1  0
  8  9  1  0
  9 10  1  0
 10 11  1  0
 11 12  1  0
 12 13  2  0
 13 14  1  0
 14 15  2  0
 15 16  1  0
 13 17  1  0
 17 18  2  0
 17 19  1  0
 19 20  1  0
 20 21  1  6
 20 22  1  0
 22 23  1  1
 22 24  1  0
 24 25  1  0
 25 26  1  0
 26 27  1  0
 26 28  1  0
 26 29  1  0
 29 30  1  0
 30 31  2  0
 31 32  1  0
 32 33  1  0
 33 34  1  0
 33 35  1  0
 33 36  1  0
 31 37  1  0
 37 38  1  0
 16 11  2  0
 21  2  1  0
 38 29  2  0
M  END
$$$$
