
     RDKit          3D

 38 40  0  0  0  0  0  0  0  0999 V2000
  -20.8526  -37.1921   -7.9744 C   0  0  0  0  0  0  0  0  0  0  0  0
  -21.0026  -38.6624   -8.4031 C   0  0  2  0  0  0  0  0  0  0  0  0
  -21.4783  -39.4510   -7.2838 C   0  0  0  0  0  0  0  0  0  0  0  0
  -22.7613  -39.6457   -6.6428 C   0  0  0  0  0  0  0  0  0  0  0  0
  -22.8195  -41.0267   -6.0068 C   0  0  0  0  0  0  0  0  0  0  0  0
  -21.9402  -41.3125   -4.8568 C   0  0  0  0  0  0  0  0  0  0  0  0
  -22.1155  -42.7289   -4.2705 C   0  0  0  0  0  0  0  0  0  0  0  0
  -20.9761  -43.2391   -3.4993 C   0  0  0  0  0  0  0  0  0  0  0  0
  -20.5587  -44.6534   -3.4794 C   0  0  0  0  0  0  0  0  0  0  0  0
  -19.8387  -45.1210   -4.6689 O   0  0  0  0  0  0  0  0  0  0  0  0
  -19.7971  -44.2487   -5.8188 C   0  0  0  0  0  0  0  0  0  0  0  0
  -18.9102  -43.2120   -5.9563 C   0  0  0  0  0  0  0  0  0  0  0  0
  -19.0148  -42.3761   -7.0551 C   0  0  0  0  0  0  0  0  0  0  0  0
  -20.0541  -42.7356   -7.9621 C   0  0  0  0  0  0  0  0  0  0  0  0
  -20.9160  -43.7706   -7.8502 C   0  0  0  0  0  0  0  0  0  0  0  0
  -20.7401  -44.4837   -6.7631 N   0  0  0  0  0  0  0  0  0  0  0  0
  -18.5047  -41.0323   -7.3139 C   0  0  0  0  0  0  0  0  0  0  0  0
  -18.8457  -40.2437   -6.2484 O   0  0  0  0  0  0  0  0  0  0  0  0
  -17.8269  -40.1707   -8.1705 N   0  0  0  0  0  0  0  0  0  0  0  0
  -18.5103  -39.3035   -9.1633 C   0  0  1  0  0  0  0  0  0  0  0  0
  -19.9364  -39.1549   -9.2862 C   0  0  0  0  0  0  0  0  0  0  0  0
  -17.6900  -38.1307   -9.4957 C   0  0  2  0  0  0  0  0  0  0  0  0
  -18.2271  -37.4097  -10.6155 O   0  0  0  0  0  0  0  0  0  0  0  0
  -16.2531  -38.2651   -9.8013 C   0  0  0  0  0  0  0  0  0  0  0  0
  -15.9768  -38.0895  -11.2099 N   0  0  0  0  0  0  0  0  0  0  0  0
  -14.7231  -37.4048  -11.4452 C   0  0  0  0  0  0  0  0  0  0  0  0
  -14.5311  -37.0210  -12.8661 C   0  0  0  0  0  0  0  0  0  0  0  0
  -14.6013  -36.2288  -10.5039 C   0  0  0  0  0  0  0  0  0  0  0  0
  -13.6573  -38.3814  -11.0629 C   0  0  0  0  0  0  0  0  0  0  0  0
  -12.3804  -38.1548  -10.5952 C   0  0  0  0  0  0  0  0  0  0  0  0
  -11.7660  -39.3661  -10.3787 C   0  0  0  0  0  0  0  0  0  0  0  0
  -10.3797  -39.6303   -9.8742 C   0  0  0  0  0  0  0  0  0  0  0  0
   -9.3998  -39.7072  -11.0255 C   0  0  0  0  0  0  0  0  0  0  0  0
   -9.3442  -38.3018  -11.6351 C   0  0  0  0  0  0  0  0  0  0  0  0
   -8.0727  -40.1267  -10.4720 C   0  0  0  0  0  0  0  0  0  0  0  0
   -9.8391  -40.6526  -12.0927 C   0  0  0  0  0  0  0  0  0  0  0  0
  -12.6558  -40.2822  -10.7096 O   0  0  0  0  0  0  0  0  0  0  0  0
  -13.7568  -39.7409  -11.1082 N   0  0  0  0  0  0  0  0  0  0  0  0
  2  1  1  1
  2  3  1  0
  3  4  1  0
  4  5  1  0
  5  6  1  0
  6  7  1  0
  7  8  1  0
  8  9  1  0
  9 10  1  0
 10 11  1  0
 11 12  1  0
 12 13  2  0
 13 14  1  0
 14 15  2  0
 15 16  1  0
 13 17  1  0
 17 18  2  0
 17 19  1  0
 19 20  1  0
 20 21  1  1
 20 22  1  0
 22 23  1  6
 22 24  1  0
 24 25  1  0
 25 26  1  0
 26 27  1  0
 26 28  1  0
 26 29  1  0
 29 30  1  0
 30 31  2  0
 31 32  1  0
 32 33  1  0
 33 34  1  0
 33 35  1  0
 33 36  1  0
 31 37  1  0
 37 38  1  0
 16 11  2  0
 21  2  1  0
 38 29  2  0
M  END
$$$$
