
     RDKit          3D

 38 40  0  0  0  0  0  0  0  0999 V2000
  -13.2338  -41.5811   -9.7791 C   0  0  0  0  0  0  0  0  0  0  0  0
  -14.1899  -42.2149   -8.7533 C   0  0  2  0  0  0  0  0  0  0  0  0
  -14.5820  -43.5359   -9.2028 C   0  0  0  0  0  0  0  0  0  0  0  0
  -13.9511  -44.8384   -9.2207 C   0  0  0  0  0  0  0  0  0  0  0  0
  -15.0103  -45.9290   -9.1596 C   0  0  0  0  0  0  0  0  0  0  0  0
  -15.9195  -46.0961  -10.3098 C   0  0  0  0  0  0  0  0  0  0  0  0
  -16.9231  -47.2573  -10.1519 C   0  0  0  0  0  0  0  0  0  0  0  0
  -18.1318  -47.1647  -10.9789 C   0  0  0  0  0  0  0  0  0  0  0  0
  -19.4647  -47.6263  -10.5487 C   0  0  0  0  0  0  0  0  0  0  0  0
  -20.1645  -46.7536   -9.5996 O   0  0  0  0  0  0  0  0  0  0  0  0
  -19.4216  -45.6646   -9.0103 C   0  0  0  0  0  0  0  0  0  0  0  0
  -19.2150  -44.4599   -9.6315 C   0  0  0  0  0  0  0  0  0  0  0  0
  -18.4087  -43.5150   -9.0199 C   0  0  0  0  0  0  0  0  0  0  0  0
  -17.9017  -43.9179   -7.7500 C   0  0  0  0  0  0  0  0  0  0  0  0
  -18.1207  -45.0916   -7.1164 C   0  0  0  0  0  0  0  0  0  0  0  0
  -18.8810  -45.9188   -7.7941 N   0  0  0  0  0  0  0  0  0  0  0  0
  -17.7128  -42.3402   -9.5379 C   0  0  0  0  0  0  0  0  0  0  0  0
  -17.0092  -42.7266  -10.6466 O   0  0  0  0  0  0  0  0  0  0  0  0
  -17.4257  -40.9850   -9.4092 N   0  0  0  0  0  0  0  0  0  0  0  0
  -16.2269  -40.4690   -8.7011 C   0  0  1  0  0  0  0  0  0  0  0  0
  -15.1670  -41.2849   -8.1705 C   0  0  0  0  0  0  0  0  0  0  0  0
  -15.8549  -39.1352   -9.1924 C   0  0  2  0  0  0  0  0  0  0  0  0
  -14.9079  -38.4961   -8.3222 O   0  0  0  0  0  0  0  0  0  0  0  0
  -16.8766  -38.1014   -9.4447 C   0  0  0  0  0  0  0  0  0  0  0  0
  -17.8362  -38.0091   -8.3667 N   0  0  0  0  0  0  0  0  0  0  0  0
  -19.1995  -37.9270   -8.8470 C   0  0  0  0  0  0  0  0  0  0  0  0
  -19.8559  -36.6396   -8.5082 C   0  0  0  0  0  0  0  0  0  0  0  0
  -19.2361  -38.2261  -10.3278 C   0  0  0  0  0  0  0  0  0  0  0  0
  -19.9318  -39.0352   -8.1601 C   0  0  0  0  0  0  0  0  0  0  0  0
  -21.2761  -39.1654   -7.8839 C   0  0  0  0  0  0  0  0  0  0  0  0
  -21.4817  -40.3603   -7.2347 C   0  0  0  0  0  0  0  0  0  0  0  0
  -22.7707  -40.9393   -6.7353 C   0  0  0  0  0  0  0  0  0  0  0  0
  -22.7892  -40.9709   -5.2220 C   0  0  0  0  0  0  0  0  0  0  0  0
  -24.2140  -40.5906   -4.8032 C   0  0  0  0  0  0  0  0  0  0  0  0
  -22.4330  -42.3591   -4.7870 C   0  0  0  0  0  0  0  0  0  0  0  0
  -21.8532  -39.9807   -4.6144 C   0  0  0  0  0  0  0  0  0  0  0  0
  -20.2914  -40.9197   -7.1306 O   0  0  0  0  0  0  0  0  0  0  0  0
  -19.3784  -40.1757   -7.6568 N   0  0  0  0  0  0  0  0  0  0  0  0
  2  1  1  6
  2  3  1  0
  3  4  1  0
  4  5  1  0
  5  6  1  0
  6  7  1  0
  7  8  1  0
  8  9  1  0
  9 10  1  0
 10 11  1  0
 11 12  1  0
 12 13  2  0
 13 14  1  0
 14 15  2  0
 15 16  1  0
 13 17  1  0
 17 18  2  0
 17 19  1  0
 19 20  1  0
 20 21  1  6
 20 22  1  0
 22 23  1  1
 22 24  1  0
 24 25  1  0
 25 26  1  0
 26 27  1  0
 26 28  1  0
 26 29  1  0
 29 30  1  0
 30 31  2  0
 31 32  1  0
 32 33  1  0
 33 34  1  0
 33 35  1  0
 33 36  1  0
 31 37  1  0
 37 38  1  0
 16 11  2  0
 21  2  1  0
 38 29  2  0
M  END
$$$$
