
     RDKit          3D

 38 40  0  0  0  0  0  0  0  0999 V2000
  -20.3297  -38.0271   -6.2999 C   0  0  0  0  0  0  0  0  0  0  0  0
  -20.3772  -38.9691   -7.5159 C   0  0  2  0  0  0  0  0  0  0  0  0
  -20.9240  -40.2513   -7.1188 C   0  0  0  0  0  0  0  0  0  0  0  0
  -22.2530  -40.7549   -6.8444 C   0  0  0  0  0  0  0  0  0  0  0  0
  -22.3140  -42.2463   -7.1396 C   0  0  0  0  0  0  0  0  0  0  0  0
  -21.5369  -43.1674   -6.2882 C   0  0  0  0  0  0  0  0  0  0  0  0
  -21.7083  -44.6561   -6.6559 C   0  0  0  0  0  0  0  0  0  0  0  0
  -20.6271  -45.5446   -6.2144 C   0  0  0  0  0  0  0  0  0  0  0  0
  -20.1553  -46.7145   -6.9781 C   0  0  0  0  0  0  0  0  0  0  0  0
  -19.3067  -46.4176   -8.1374 O   0  0  0  0  0  0  0  0  0  0  0  0
  -19.1923  -45.0399   -8.5544 C   0  0  0  0  0  0  0  0  0  0  0  0
  -18.3401  -44.1367   -7.9730 C   0  0  0  0  0  0  0  0  0  0  0  0
  -18.3743  -42.8152   -8.3848 C   0  0  0  0  0  0  0  0  0  0  0  0
  -19.3069  -42.5565   -9.4314 C   0  0  0  0  0  0  0  0  0  0  0  0
  -20.1320  -43.4440  -10.0301 C   0  0  0  0  0  0  0  0  0  0  0  0
  -20.0307  -44.6605   -9.5490 N   0  0  0  0  0  0  0  0  0  0  0  0
  -17.8981  -41.5837   -7.7609 C   0  0  0  0  0  0  0  0  0  0  0  0
  -18.3712  -41.5558   -6.4769 O   0  0  0  0  0  0  0  0  0  0  0  0
  -17.1783  -40.3994   -7.8830 N   0  0  0  0  0  0  0  0  0  0  0  0
  -17.7996  -39.1016   -8.2498 C   0  0  1  0  0  0  0  0  0  0  0  0
  -19.2125  -38.8782   -8.4071 C   0  0  0  0  0  0  0  0  0  0  0  0
  -17.0007  -37.9729   -7.7533 C   0  0  2  0  0  0  0  0  0  0  0  0
  -17.7880  -37.0811   -6.9486 O   0  0  0  0  0  0  0  0  0  0  0  0
  -16.2737  -37.0849   -8.6802 C   0  0  0  0  0  0  0  0  0  0  0  0
  -16.0655  -37.6993   -9.9727 N   0  0  0  0  0  0  0  0  0  0  0  0
  -14.9716  -37.0932  -10.7021 C   0  0  0  0  0  0  0  0  0  0  0  0
  -15.3980  -35.9377  -11.5302 C   0  0  0  0  0  0  0  0  0  0  0  0
  -13.8552  -36.7425   -9.7459 C   0  0  0  0  0  0  0  0  0  0  0  0
  -14.4515  -38.1657  -11.6049 C   0  0  0  0  0  0  0  0  0  0  0  0
  -13.1699  -38.3896  -12.0609 C   0  0  0  0  0  0  0  0  0  0  0  0
  -13.1754  -39.5008  -12.8715 C   0  0  0  0  0  0  0  0  0  0  0  0
  -12.0245  -40.1317  -13.5950 C   0  0  0  0  0  0  0  0  0  0  0  0
  -11.6550  -39.3198  -14.8180 C   0  0  0  0  0  0  0  0  0  0  0  0
  -12.8284  -39.4585  -15.7946 C   0  0  0  0  0  0  0  0  0  0  0  0
  -11.4568  -37.8999  -14.3842 C   0  0  0  0  0  0  0  0  0  0  0  0
  -10.4295  -39.8301  -15.4986 C   0  0  0  0  0  0  0  0  0  0  0  0
  -14.4258  -39.9208  -12.8932 O   0  0  0  0  0  0  0  0  0  0  0  0
  -15.1838  -39.1679  -12.1702 N   0  0  0  0  0  0  0  0  0  0  0  0
  2  1  1  1
  2  3  1  0
  3  4  1  0
  4  5  1  0
  5  6  1  0
  6  7  1  0
  7  8  1  0
  8  9  1  0
  9 10  1  0
 10 11  1  0
 11 12  1  0
 12 13  2  0
 13 14  1  0
 14 15  2  0
 15 16  1  0
 13 17  1  0
 17 18  2  0
 17 19  1  0
 19 20  1  0
 20 21  1  1
 20 22  1  0
 22 23  1  6
 22 24  1  0
 24 25  1  0
 25 26  1  0
 26 27  1  0
 26 28  1  0
 26 29  1  0
 29 30  1  0
 30 31  2  0
 31 32  1  0
 32 33  1  0
 33 34  1  0
 33 35  1  0
 33 36  1  0
 31 37  1  0
 37 38  1  0
 16 11  2  0
 21  2  1  0
 38 29  2  0
M  END
$$$$
