
     RDKit          3D

 38 40  0  0  0  0  0  0  0  0999 V2000
  -16.4354  -43.2323   -8.9083 C   0  0  0  0  0  0  0  0  0  0  0  0
  -17.1269  -43.0502   -7.5457 C   0  0  2  0  0  0  0  0  0  0  0  0
  -18.4122  -43.7200   -7.5574 C   0  0  0  0  0  0  0  0  0  0  0  0
  -18.8490  -45.0954   -7.4456 C   0  0  0  0  0  0  0  0  0  0  0  0
  -20.2492  -45.1487   -6.8526 C   0  0  0  0  0  0  0  0  0  0  0  0
  -21.3728  -44.6125   -7.6447 C   0  0  0  0  0  0  0  0  0  0  0  0
  -22.7479  -44.7575   -6.9600 C   0  0  0  0  0  0  0  0  0  0  0  0
  -23.7876  -43.8341   -7.4287 C   0  0  0  0  0  0  0  0  0  0  0  0
  -24.8289  -43.2530   -6.5610 C   0  0  0  0  0  0  0  0  0  0  0  0
  -24.3904  -42.1612   -5.6848 O   0  0  0  0  0  0  0  0  0  0  0  0
  -22.9731  -41.9049   -5.5838 C   0  0  0  0  0  0  0  0  0  0  0  0
  -22.2661  -41.1655   -6.4968 C   0  0  0  0  0  0  0  0  0  0  0  0
  -20.8926  -41.0575   -6.3590 C   0  0  0  0  0  0  0  0  0  0  0  0
  -20.3686  -41.7285   -5.2157 C   0  0  0  0  0  0  0  0  0  0  0  0
  -21.0592  -42.4371   -4.2949 C   0  0  0  0  0  0  0  0  0  0  0  0
  -22.3482  -42.4907   -4.5338 N   0  0  0  0  0  0  0  0  0  0  0  0
  -19.8417  -40.6812   -7.3006 C   0  0  0  0  0  0  0  0  0  0  0  0
  -20.0157  -41.4215   -8.4387 O   0  0  0  0  0  0  0  0  0  0  0  0
  -18.7176  -39.9064   -7.5685 N   0  0  0  0  0  0  0  0  0  0  0  0
  -17.3282  -40.3817   -7.3480 C   0  0  1  0  0  0  0  0  0  0  0  0
  -16.9659  -41.7165   -6.9505 C   0  0  0  0  0  0  0  0  0  0  0  0
  -16.3803  -39.6670   -8.2137 C   0  0  2  0  0  0  0  0  0  0  0  0
  -15.0309  -40.1091   -7.9989 O   0  0  0  0  0  0  0  0  0  0  0  0
  -16.2907  -38.1946   -8.1969 C   0  0  0  0  0  0  0  0  0  0  0  0
  -17.5945  -37.5691   -8.2103 N   0  0  0  0  0  0  0  0  0  0  0  0
  -17.7603  -36.6627   -9.3271 C   0  0  0  0  0  0  0  0  0  0  0  0
  -18.3635  -35.3647   -8.9343 C   0  0  0  0  0  0  0  0  0  0  0  0
  -16.4423  -36.4968  -10.0476 C   0  0  0  0  0  0  0  0  0  0  0  0
  -18.6885  -37.3581  -10.2708 C   0  0  0  0  0  0  0  0  0  0  0  0
  -19.5396  -36.8313  -11.2188 C   0  0  0  0  0  0  0  0  0  0  0  0
  -20.1956  -37.8634  -11.8482 C   0  0  0  0  0  0  0  0  0  0  0  0
  -21.2149  -37.7883  -12.9444 C   0  0  0  0  0  0  0  0  0  0  0  0
  -20.6264  -38.2719  -14.2525 C   0  0  0  0  0  0  0  0  0  0  0  0
  -20.2784  -37.0140  -15.0565 C   0  0  0  0  0  0  0  0  0  0  0  0
  -19.4089  -39.0847  -13.9360 C   0  0  0  0  0  0  0  0  0  0  0  0
  -21.5927  -39.0763  -15.0556 C   0  0  0  0  0  0  0  0  0  0  0  0
  -19.7441  -38.9687  -11.2870 O   0  0  0  0  0  0  0  0  0  0  0  0
  -18.8727  -38.7057  -10.3729 N   0  0  0  0  0  0  0  0  0  0  0  0
  2  1  1  6
  2  3  1  0
  3  4  1  0
  4  5  1  0
  5  6  1  0
  6  7  1  0
  7  8  1  0
  8  9  1  0
  9 10  1  0
 10 11  1  0
 11 12  1  0
 12 13  2  0
 13 14  1  0
 14 15  2  0
 15 16  1  0
 13 17  1  0
 17 18  2  0
 17 19  1  0
 19 20  1  0
 20 21  1  6
 20 22  1  0
 22 23  1  1
 22 24  1  0
 24 25  1  0
 25 26  1  0
 26 27  1  0
 26 28  1  0
 26 29  1  0
 29 30  1  0
 30 31  2  0
 31 32  1  0
 32 33  1  0
 33 34  1  0
 33 35  1  0
 33 36  1  0
 31 37  1  0
 37 38  1  0
 16 11  2  0
 21  2  1  0
 38 29  2  0
M  END
$$$$
