
     RDKit          3D

 38 40  0  0  0  0  0  0  0  0999 V2000
  -19.4139  -37.5155   -7.0949 C   0  0  0  0  0  0  0  0  0  0  0  0
  -19.8416  -38.7280   -7.9406 C   0  0  2  0  0  0  0  0  0  0  0  0
  -20.8670  -39.4747   -7.2393 C   0  0  0  0  0  0  0  0  0  0  0  0
  -22.2860  -39.2990   -7.0148 C   0  0  0  0  0  0  0  0  0  0  0  0
  -22.9530  -40.6534   -6.8248 C   0  0  0  0  0  0  0  0  0  0  0  0
  -22.6236  -41.4404   -5.6208 C   0  0  0  0  0  0  0  0  0  0  0  0
  -23.3900  -42.7754   -5.5157 C   0  0  0  0  0  0  0  0  0  0  0  0
  -22.7692  -43.7948   -4.6620 C   0  0  0  0  0  0  0  0  0  0  0  0
  -22.8175  -45.2430   -4.9358 C   0  0  0  0  0  0  0  0  0  0  0  0
  -21.9198  -45.7209   -5.9931 O   0  0  0  0  0  0  0  0  0  0  0  0
  -21.2495  -44.7337   -6.8062 C   0  0  0  0  0  0  0  0  0  0  0  0
  -20.1029  -44.0853   -6.4258 C   0  0  0  0  0  0  0  0  0  0  0  0
  -19.5912  -43.0872   -7.2377 C   0  0  0  0  0  0  0  0  0  0  0  0
  -20.3338  -42.8749   -8.4359 C   0  0  0  0  0  0  0  0  0  0  0  0
  -21.4492  -43.5264   -8.8335 C   0  0  0  0  0  0  0  0  0  0  0  0
  -21.8568  -44.4361   -7.9805 N   0  0  0  0  0  0  0  0  0  0  0  0
  -18.6528  -41.9991   -6.9767 C   0  0  0  0  0  0  0  0  0  0  0  0
  -19.0751  -41.3440   -5.8516 O   0  0  0  0  0  0  0  0  0  0  0  0
  -17.5103  -41.3061   -7.3640 N   0  0  0  0  0  0  0  0  0  0  0  0
  -17.5439  -40.0872   -8.2115 C   0  0  1  0  0  0  0  0  0  0  0  0
  -18.7405  -39.4094   -8.6351 C   0  0  0  0  0  0  0  0  0  0  0  0
  -16.3531  -39.2554   -7.9901 C   0  0  2  0  0  0  0  0  0  0  0  0
  -16.7067  -37.9084   -7.6391 O   0  0  0  0  0  0  0  0  0  0  0  0
  -15.3223  -39.1034   -9.0344 C   0  0  0  0  0  0  0  0  0  0  0  0
  -15.2403  -40.2648   -9.8922 N   0  0  0  0  0  0  0  0  0  0  0  0
  -13.8858  -40.5363  -10.3255 C   0  0  0  0  0  0  0  0  0  0  0  0
  -13.0293  -41.0789   -9.2414 C   0  0  0  0  0  0  0  0  0  0  0  0
  -13.9110  -41.4261  -11.5467 C   0  0  0  0  0  0  0  0  0  0  0  0
  -13.3335  -39.2162  -10.7592 C   0  0  0  0  0  0  0  0  0  0  0  0
  -13.8876  -38.2543  -11.5766 C   0  0  0  0  0  0  0  0  0  0  0  0
  -13.0052  -37.2052  -11.6881 C   0  0  0  0  0  0  0  0  0  0  0  0
  -13.1627  -35.9343  -12.4666 C   0  0  0  0  0  0  0  0  0  0  0  0
  -12.2490  -35.9325  -13.6735 C   0  0  0  0  0  0  0  0  0  0  0  0
  -10.8228  -36.0793  -13.1311 C   0  0  0  0  0  0  0  0  0  0  0  0
  -12.6352  -37.0887  -14.5438 C   0  0  0  0  0  0  0  0  0  0  0  0
  -12.3170  -34.6573  -14.4448 C   0  0  0  0  0  0  0  0  0  0  0  0
  -11.9592  -37.5390  -10.9567 O   0  0  0  0  0  0  0  0  0  0  0  0
  -12.1225  -38.6955  -10.4090 N   0  0  0  0  0  0  0  0  0  0  0  0
  2  1  1  1
  2  3  1  0
  3  4  1  0
  4  5  1  0
  5  6  1  0
  6  7  1  0
  7  8  1  0
  8  9  1  0
  9 10  1  0
 10 11  1  0
 11 12  1  0
 12 13  2  0
 13 14  1  0
 14 15  2  0
 15 16  1  0
 13 17  1  0
 17 18  2  0
 17 19  1  0
 19 20  1  0
 20 21  1  1
 20 22  1  0
 22 23  1  6
 22 24  1  0
 24 25  1  0
 25 26  1  0
 26 27  1  0
 26 28  1  0
 26 29  1  0
 29 30  1  0
 30 31  2  0
 31 32  1  0
 32 33  1  0
 33 34  1  0
 33 35  1  0
 33 36  1  0
 31 37  1  0
 37 38  1  0
 16 11  2  0
 21  2  1  0
 38 29  2  0
M  END
$$$$
