
     RDKit          3D

 38 40  0  0  0  0  0  0  0  0999 V2000
  -19.8951  -39.2162   -4.6216 C   0  0  0  0  0  0  0  0  0  0  0  0
  -20.6554  -39.8241   -5.8135 C   0  0  2  0  0  0  0  0  0  0  0  0
  -21.0521  -41.1820   -5.4981 C   0  0  0  0  0  0  0  0  0  0  0  0
  -22.0978  -41.7812   -4.6966 C   0  0  0  0  0  0  0  0  0  0  0  0
  -22.4558  -43.1521   -5.2513 C   0  0  0  0  0  0  0  0  0  0  0  0
  -21.4532  -44.2316   -5.1686 C   0  0  0  0  0  0  0  0  0  0  0  0
  -21.9422  -45.5851   -5.7248 C   0  0  0  0  0  0  0  0  0  0  0  0
  -20.8864  -46.5203   -6.1299 C   0  0  0  0  0  0  0  0  0  0  0  0
  -20.9960  -47.4454   -7.2731 C   0  0  0  0  0  0  0  0  0  0  0  0
  -20.8341  -46.8397   -8.5994 O   0  0  0  0  0  0  0  0  0  0  0  0
  -20.8065  -45.3986   -8.6841 C   0  0  0  0  0  0  0  0  0  0  0  0
  -19.6884  -44.6429   -8.4417 C   0  0  0  0  0  0  0  0  0  0  0  0
  -19.7908  -43.2622   -8.4577 C   0  0  0  0  0  0  0  0  0  0  0  0
  -21.0946  -42.7796   -8.7726 C   0  0  0  0  0  0  0  0  0  0  0  0
  -22.1969  -43.5149   -9.0397 C   0  0  0  0  0  0  0  0  0  0  0  0
  -21.9909  -44.8092   -8.9775 N   0  0  0  0  0  0  0  0  0  0  0  0
  -18.9375  -42.2117   -7.9089 C   0  0  0  0  0  0  0  0  0  0  0  0
  -18.6816  -42.5222   -6.6007 O   0  0  0  0  0  0  0  0  0  0  0  0
  -18.2628  -41.0119   -8.1110 N   0  0  0  0  0  0  0  0  0  0  0  0
  -18.8455  -39.6845   -7.7897 C   0  0  1  0  0  0  0  0  0  0  0  0
  -20.1080  -39.4748   -7.1317 C   0  0  0  0  0  0  0  0  0  0  0  0
  -17.7928  -38.6910   -7.5373 C   0  0  2  0  0  0  0  0  0  0  0  0
  -18.3346  -37.4664   -7.0186 O   0  0  0  0  0  0  0  0  0  0  0  0
  -16.8753  -38.2608   -8.6094 C   0  0  0  0  0  0  0  0  0  0  0  0
  -17.5129  -37.3593   -9.5432 N   0  0  0  0  0  0  0  0  0  0  0  0
  -17.4487  -37.8412  -10.9069 C   0  0  0  0  0  0  0  0  0  0  0  0
  -17.9407  -39.2341  -11.0522 C   0  0  0  0  0  0  0  0  0  0  0  0
  -18.1630  -36.8741  -11.8224 C   0  0  0  0  0  0  0  0  0  0  0  0
  -16.0002  -37.8021  -11.2760 C   0  0  0  0  0  0  0  0  0  0  0  0
  -14.9620  -37.1022  -10.6993 C   0  0  0  0  0  0  0  0  0  0  0  0
  -13.8031  -37.3831  -11.3847 C   0  0  0  0  0  0  0  0  0  0  0  0
  -12.4211  -36.8619  -11.1306 C   0  0  0  0  0  0  0  0  0  0  0  0
  -11.7370  -36.5095  -12.4342 C   0  0  0  0  0  0  0  0  0  0  0  0
  -10.4001  -35.8625  -12.0550 C   0  0  0  0  0  0  0  0  0  0  0  0
  -11.5423  -37.7770  -13.2082 C   0  0  0  0  0  0  0  0  0  0  0  0
  -12.5112  -35.5224  -13.2417 C   0  0  0  0  0  0  0  0  0  0  0  0
  -14.1481  -38.2256  -12.3395 O   0  0  0  0  0  0  0  0  0  0  0  0
  -15.4112  -38.4845  -12.2996 N   0  0  0  0  0  0  0  0  0  0  0  0
  2  1  1  1
  2  3  1  0
  3  4  1  0
  4  5  1  0
  5  6  1  0
  6  7  1  0
  7  8  1  0
  8  9  1  0
  9 10  1  0
 10 11  1  0
 11 12  1  0
 12 13  2  0
 13 14  1  0
 14 15  2  0
 15 16  1  0
 13 17  1  0
 17 18  2  0
 17 19  1  0
 19 20  1  0
 20 21  1  1
 20 22  1  0
 22 23  1  6
 22 24  1  0
 24 25  1  0
 25 26  1  0
 26 27  1  0
 26 28  1  0
 26 29  1  0
 29 30  1  0
 30 31  2  0
 31 32  1  0
 32 33  1  0
 33 34  1  0
 33 35  1  0
 33 36  1  0
 31 37  1  0
 37 38  1  0
 16 11  2  0
 21  2  1  0
 38 29  2  0
M  END
$$$$
