
     RDKit          3D

 38 40  0  0  0  0  0  0  0  0999 V2000
  -13.3513  -41.7017   -8.0942 C   0  0  0  0  0  0  0  0  0  0  0  0
  -14.3351  -42.7400   -7.5268 C   0  0  2  0  0  0  0  0  0  0  0  0
  -14.3016  -43.9394   -8.3399 C   0  0  0  0  0  0  0  0  0  0  0  0
  -13.3974  -45.0624   -8.4679 C   0  0  0  0  0  0  0  0  0  0  0  0
  -14.1615  -46.2935   -8.9322 C   0  0  0  0  0  0  0  0  0  0  0  0
  -14.7322  -46.2993  -10.2930 C   0  0  0  0  0  0  0  0  0  0  0  0
  -15.4484  -47.6139  -10.6668 C   0  0  0  0  0  0  0  0  0  0  0  0
  -16.4340  -47.5108  -11.7490 C   0  0  0  0  0  0  0  0  0  0  0  0
  -17.6843  -48.2908  -11.8050 C   0  0  0  0  0  0  0  0  0  0  0  0
  -18.7581  -47.8362  -10.9148 O   0  0  0  0  0  0  0  0  0  0  0  0
  -18.4360  -46.8345   -9.9260 C   0  0  0  0  0  0  0  0  0  0  0  0
  -18.3837  -45.4905  -10.1928 C   0  0  0  0  0  0  0  0  0  0  0  0
  -17.9730  -44.6206   -9.1969 C   0  0  0  0  0  0  0  0  0  0  0  0
  -17.6773  -45.2560   -7.9556 C   0  0  0  0  0  0  0  0  0  0  0  0
  -17.7514  -46.5759   -7.6739 C   0  0  0  0  0  0  0  0  0  0  0  0
  -18.1314  -47.3087   -8.6937 N   0  0  0  0  0  0  0  0  0  0  0  0
  -17.4726  -43.2493   -9.2413 C   0  0  0  0  0  0  0  0  0  0  0  0
  -16.4731  -43.1993  -10.1751 O   0  0  0  0  0  0  0  0  0  0  0  0
  -17.5433  -41.9496   -8.7501 N   0  0  0  0  0  0  0  0  0  0  0  0
  -16.6822  -41.4453   -7.6506 C   0  0  1  0  0  0  0  0  0  0  0  0
  -15.6047  -42.1805   -7.0428 C   0  0  0  0  0  0  0  0  0  0  0  0
  -16.5316  -39.9856   -7.7228 C   0  0  2  0  0  0  0  0  0  0  0  0
  -16.5834  -39.3833   -6.4201 O   0  0  0  0  0  0  0  0  0  0  0  0
  -17.4409  -39.1632   -8.5433 C   0  0  0  0  0  0  0  0  0  0  0  0
  -17.1618  -37.7500   -8.4160 N   0  0  0  0  0  0  0  0  0  0  0  0
  -17.9226  -36.9506   -9.3531 C   0  0  0  0  0  0  0  0  0  0  0  0
  -19.1812  -37.6077   -9.7858 C   0  0  0  0  0  0  0  0  0  0  0  0
  -18.1546  -35.5734   -8.7758 C   0  0  0  0  0  0  0  0  0  0  0  0
  -17.0351  -36.7801  -10.5444 C   0  0  0  0  0  0  0  0  0  0  0  0
  -16.6466  -35.6296  -11.1969 C   0  0  0  0  0  0  0  0  0  0  0  0
  -15.8213  -35.9704  -12.2431 C   0  0  0  0  0  0  0  0  0  0  0  0
  -15.1527  -35.0669  -13.2345 C   0  0  0  0  0  0  0  0  0  0  0  0
  -13.7378  -34.7520  -12.7981 C   0  0  0  0  0  0  0  0  0  0  0  0
  -13.1881  -36.0367  -12.1679 C   0  0  0  0  0  0  0  0  0  0  0  0
  -12.9604  -34.3516  -14.0141 C   0  0  0  0  0  0  0  0  0  0  0  0
  -13.6799  -33.6748  -11.7676 C   0  0  0  0  0  0  0  0  0  0  0  0
  -15.7257  -37.2857  -12.2088 O   0  0  0  0  0  0  0  0  0  0  0  0
  -16.4169  -37.7788  -11.2377 N   0  0  0  0  0  0  0  0  0  0  0  0
  2  1  1  6
  2  3  1  0
  3  4  1  0
  4  5  1  0
  5  6  1  0
  6  7  1  0
  7  8  1  0
  8  9  1  0
  9 10  1  0
 10 11  1  0
 11 12  1  0
 12 13  2  0
 13 14  1  0
 14 15  2  0
 15 16  1  0
 13 17  1  0
 17 18  2  0
 17 19  1  0
 19 20  1  0
 20 21  1  6
 20 22  1  0
 22 23  1  1
 22 24  1  0
 24 25  1  0
 25 26  1  0
 26 27  1  0
 26 28  1  0
 26 29  1  0
 29 30  1  0
 30 31  2  0
 31 32  1  0
 32 33  1  0
 33 34  1  0
 33 35  1  0
 33 36  1  0
 31 37  1  0
 37 38  1  0
 16 11  2  0
 21  2  1  0
 38 29  2  0
M  END
$$$$
