
     RDKit          3D

 38 40  0  0  0  0  0  0  0  0999 V2000
  -15.7649  -42.5978   -6.0124 C   0  0  0  0  0  0  0  0  0  0  0  0
  -17.0799  -41.9174   -5.5933 C   0  0  2  0  0  0  0  0  0  0  0  0
  -18.1716  -42.8662   -5.6864 C   0  0  0  0  0  0  0  0  0  0  0  0
  -18.6389  -43.9696   -4.8744 C   0  0  0  0  0  0  0  0  0  0  0  0
  -20.1375  -44.1539   -5.0622 C   0  0  0  0  0  0  0  0  0  0  0  0
  -20.6346  -44.6063   -6.3759 C   0  0  0  0  0  0  0  0  0  0  0  0
  -22.1646  -44.7967   -6.4354 C   0  0  0  0  0  0  0  0  0  0  0  0
  -22.7557  -44.7471   -7.7776 C   0  0  0  0  0  0  0  0  0  0  0  0
  -24.0838  -44.1794   -8.0750 C   0  0  0  0  0  0  0  0  0  0  0  0
  -24.1600  -42.7145   -8.0930 O   0  0  0  0  0  0  0  0  0  0  0  0
  -23.0180  -41.9736   -7.6117 C   0  0  0  0  0  0  0  0  0  0  0  0
  -21.9074  -41.7085   -8.3709 C   0  0  0  0  0  0  0  0  0  0  0  0
  -20.8266  -41.0711   -7.7856 C   0  0  0  0  0  0  0  0  0  0  0  0
  -21.0273  -40.7243   -6.4175 C   0  0  0  0  0  0  0  0  0  0  0  0
  -22.1275  -40.9564   -5.6675 C   0  0  0  0  0  0  0  0  0  0  0  0
  -23.0809  -41.5826   -6.3157 N   0  0  0  0  0  0  0  0  0  0  0  0
  -19.4223  -40.9710   -8.1739 C   0  0  0  0  0  0  0  0  0  0  0  0
  -18.9718  -42.2354   -8.4419 O   0  0  0  0  0  0  0  0  0  0  0  0
  -18.3110  -40.1622   -8.3893 N   0  0  0  0  0  0  0  0  0  0  0  0
  -17.2787  -39.9023   -7.3541 C   0  0  1  0  0  0  0  0  0  0  0  0
  -17.2294  -40.5325   -6.0613 C   0  0  0  0  0  0  0  0  0  0  0  0
  -15.9923  -39.5442   -7.9672 C   0  0  2  0  0  0  0  0  0  0  0  0
  -14.8879  -40.1270   -7.2578 O   0  0  0  0  0  0  0  0  0  0  0  0
  -15.6027  -38.1342   -8.1574 C   0  0  0  0  0  0  0  0  0  0  0  0
  -16.6693  -37.3474   -8.7358 N   0  0  0  0  0  0  0  0  0  0  0  0
  -16.7036  -37.4414  -10.1802 C   0  0  0  0  0  0  0  0  0  0  0  0
  -15.9529  -36.3496  -10.8491 C   0  0  0  0  0  0  0  0  0  0  0  0
  -16.2413  -38.8138  -10.6118 C   0  0  0  0  0  0  0  0  0  0  0  0
  -18.1475  -37.3305  -10.5529 C   0  0  0  0  0  0  0  0  0  0  0  0
  -19.0865  -36.3950  -10.1741 C   0  0  0  0  0  0  0  0  0  0  0  0
  -20.2859  -36.7031  -10.7725 C   0  0  0  0  0  0  0  0  0  0  0  0
  -21.5943  -35.9805  -10.6630 C   0  0  0  0  0  0  0  0  0  0  0  0
  -22.5355  -36.7208   -9.7370 C   0  0  0  0  0  0  0  0  0  0  0  0
  -21.8096  -36.8366   -8.3918 C   0  0  0  0  0  0  0  0  0  0  0  0
  -23.7943  -35.9172   -9.6229 C   0  0  0  0  0  0  0  0  0  0  0  0
  -22.8427  -38.1012  -10.2124 C   0  0  0  0  0  0  0  0  0  0  0  0
  -20.0608  -37.7906  -11.4847 O   0  0  0  0  0  0  0  0  0  0  0  0
  -18.8340  -38.1743  -11.3758 N   0  0  0  0  0  0  0  0  0  0  0  0
  2  1  1  6
  2  3  1  0
  3  4  1  0
  4  5  1  0
  5  6  1  0
  6  7  1  0
  7  8  1  0
  8  9  1  0
  9 10  1  0
 10 11  1  0
 11 12  1  0
 12 13  2  0
 13 14  1  0
 14 15  2  0
 15 16  1  0
 13 17  1  0
 17 18  2  0
 17 19  1  0
 19 20  1  0
 20 21  1  6
 20 22  1  0
 22 23  1  1
 22 24  1  0
 24 25  1  0
 25 26  1  0
 26 27  1  0
 26 28  1  0
 26 29  1  0
 29 30  1  0
 30 31  2  0
 31 32  1  0
 32 33  1  0
 33 34  1  0
 33 35  1  0
 33 36  1  0
 31 37  1  0
 37 38  1  0
 16 11  2  0
 21  2  1  0
 38 29  2  0
M  END
$$$$
