
     RDKit          3D

 38 40  0  0  0  0  0  0  0  0999 V2000
  -19.3675  -37.8230   -6.8551 C   0  0  0  0  0  0  0  0  0  0  0  0
  -19.7041  -38.9590   -7.8371 C   0  0  2  0  0  0  0  0  0  0  0  0
  -20.8728  -39.6777   -7.3699 C   0  0  0  0  0  0  0  0  0  0  0  0
  -22.2983  -39.4268   -7.3791 C   0  0  0  0  0  0  0  0  0  0  0  0
  -23.0572  -40.7455   -7.3926 C   0  0  0  0  0  0  0  0  0  0  0  0
  -22.9828  -41.6157   -6.2032 C   0  0  0  0  0  0  0  0  0  0  0  0
  -23.8238  -42.9044   -6.3157 C   0  0  0  0  0  0  0  0  0  0  0  0
  -23.4140  -44.0051   -5.4361 C   0  0  0  0  0  0  0  0  0  0  0  0
  -23.4889  -45.4306   -5.8065 C   0  0  0  0  0  0  0  0  0  0  0  0
  -22.4473  -45.9050   -6.7242 O   0  0  0  0  0  0  0  0  0  0  0  0
  -21.5961  -44.9186   -7.3464 C   0  0  0  0  0  0  0  0  0  0  0  0
  -20.5008  -44.3641   -6.7357 C   0  0  0  0  0  0  0  0  0  0  0  0
  -19.8051  -43.3570   -7.3830 C   0  0  0  0  0  0  0  0  0  0  0  0
  -20.3166  -43.0344   -8.6739 C   0  0  0  0  0  0  0  0  0  0  0  0
  -21.3784  -43.5929   -9.2964 C   0  0  0  0  0  0  0  0  0  0  0  0
  -21.9742  -44.5206   -8.5853 N   0  0  0  0  0  0  0  0  0  0  0  0
  -18.8712  -42.3449   -6.8970 C   0  0  0  0  0  0  0  0  0  0  0  0
  -19.4479  -41.7270   -5.8204 O   0  0  0  0  0  0  0  0  0  0  0  0
  -17.6446  -41.7040   -7.0391 N   0  0  0  0  0  0  0  0  0  0  0  0
  -17.4676  -40.4413   -7.8000 C   0  0  1  0  0  0  0  0  0  0  0  0
  -18.5359  -39.6685   -8.3766 C   0  0  0  0  0  0  0  0  0  0  0  0
  -16.2919  -39.6981   -7.3265 C   0  0  2  0  0  0  0  0  0  0  0  0
  -16.3769  -39.4130   -5.9215 O   0  0  0  0  0  0  0  0  0  0  0  0
  -15.9027  -38.4133   -7.9382 C   0  0  0  0  0  0  0  0  0  0  0  0
  -15.7527  -38.5162   -9.3728 N   0  0  0  0  0  0  0  0  0  0  0  0
  -14.6284  -39.3459   -9.7520 C   0  0  0  0  0  0  0  0  0  0  0  0
  -13.5409  -39.3437   -8.7419 C   0  0  0  0  0  0  0  0  0  0  0  0
  -15.1125  -40.7389  -10.0819 C   0  0  0  0  0  0  0  0  0  0  0  0
  -14.1061  -38.7538  -11.0219 C   0  0  0  0  0  0  0  0  0  0  0  0
  -13.9363  -37.4318  -11.3738 C   0  0  0  0  0  0  0  0  0  0  0  0
  -13.4229  -37.3746  -12.6485 C   0  0  0  0  0  0  0  0  0  0  0  0
  -13.0717  -36.1630  -13.4578 C   0  0  0  0  0  0  0  0  0  0  0  0
  -11.6437  -36.2490  -13.9527 C   0  0  0  0  0  0  0  0  0  0  0  0
  -10.7514  -36.0595  -12.7207 C   0  0  0  0  0  0  0  0  0  0  0  0
  -11.4537  -37.5979  -14.5754 C   0  0  0  0  0  0  0  0  0  0  0  0
  -11.3083  -35.1740  -14.9312 C   0  0  0  0  0  0  0  0  0  0  0  0
  -13.2936  -38.6284  -13.0380 O   0  0  0  0  0  0  0  0  0  0  0  0
  -13.6808  -39.4454  -12.1178 N   0  0  0  0  0  0  0  0  0  0  0  0
  2  1  1  1
  2  3  1  0
  3  4  1  0
  4  5  1  0
  5  6  1  0
  6  7  1  0
  7  8  1  0
  8  9  1  0
  9 10  1  0
 10 11  1  0
 11 12  1  0
 12 13  2  0
 13 14  1  0
 14 15  2  0
 15 16  1  0
 13 17  1  0
 17 18  2  0
 17 19  1  0
 19 20  1  0
 20 21  1  1
 20 22  1  0
 22 23  1  1
 22 24  1  0
 24 25  1  0
 25 26  1  0
 26 27  1  0
 26 28  1  0
 26 29  1  0
 29 30  1  0
 30 31  2  0
 31 32  1  0
 32 33  1  0
 33 34  1  0
 33 35  1  0
 33 36  1  0
 31 37  1  0
 37 38  1  0
 16 11  2  0
 21  2  1  0
 38 29  2  0
M  END
$$$$
