
     RDKit          3D

 38 40  0  0  0  0  0  0  0  0999 V2000
  -20.6334  -37.6579   -8.4839 C   0  0  0  0  0  0  0  0  0  0  0  0
  -20.9515  -39.1477   -8.7022 C   0  0  2  0  0  0  0  0  0  0  0  0
  -21.5095  -39.7105   -7.4887 C   0  0  0  0  0  0  0  0  0  0  0  0
  -22.8038  -39.6657   -6.8424 C   0  0  0  0  0  0  0  0  0  0  0  0
  -23.0163  -40.9270   -6.0183 C   0  0  0  0  0  0  0  0  0  0  0  0
  -22.1707  -41.1445   -4.8287 C   0  0  0  0  0  0  0  0  0  0  0  0
  -22.5039  -42.4343   -4.0502 C   0  0  0  0  0  0  0  0  0  0  0  0
  -21.4269  -42.9556   -3.2007 C   0  0  0  0  0  0  0  0  0  0  0  0
  -21.1731  -44.3908   -2.9759 C   0  0  0  0  0  0  0  0  0  0  0  0
  -20.5156  -45.1010   -4.0784 O   0  0  0  0  0  0  0  0  0  0  0  0
  -20.3795  -44.4109   -5.3394 C   0  0  0  0  0  0  0  0  0  0  0  0
  -19.3810  -43.5114   -5.6111 C   0  0  0  0  0  0  0  0  0  0  0  0
  -19.3940  -42.8334   -6.8183 C   0  0  0  0  0  0  0  0  0  0  0  0
  -20.4709  -43.1980   -7.6782 C   0  0  0  0  0  0  0  0  0  0  0  0
  -21.4447  -44.1023   -7.4317 C   0  0  0  0  0  0  0  0  0  0  0  0
  -21.3468  -44.6693   -6.2525 N   0  0  0  0  0  0  0  0  0  0  0  0
  -18.7353  -41.6064   -7.2582 C   0  0  0  0  0  0  0  0  0  0  0  0
  -18.9802  -40.6411   -6.3192 O   0  0  0  0  0  0  0  0  0  0  0  0
  -17.9672  -40.9574   -8.2196 N   0  0  0  0  0  0  0  0  0  0  0  0
  -18.5513  -40.1681   -9.3334 C   0  0  1  0  0  0  0  0  0  0  0  0
  -19.9517  -39.8779   -9.4936 C   0  0  0  0  0  0  0  0  0  0  0  0
  -17.6041  -39.1548   -9.8181 C   0  0  2  0  0  0  0  0  0  0  0  0
  -17.3350  -39.3101  -11.2202 O   0  0  0  0  0  0  0  0  0  0  0  0
  -16.2719  -38.9985   -9.2042 C   0  0  0  0  0  0  0  0  0  0  0  0
  -15.2629  -39.7786   -9.8859 N   0  0  0  0  0  0  0  0  0  0  0  0
  -13.9207  -39.3221   -9.5923 C   0  0  0  0  0  0  0  0  0  0  0  0
  -13.7464  -38.9095   -8.1772 C   0  0  0  0  0  0  0  0  0  0  0  0
  -12.9215  -40.3726  -10.0187 C   0  0  0  0  0  0  0  0  0  0  0  0
  -13.7032  -38.1316  -10.4704 C   0  0  0  0  0  0  0  0  0  0  0  0
  -13.2209  -36.8793  -10.1545 C   0  0  0  0  0  0  0  0  0  0  0  0
  -13.1979  -36.1122  -11.2959 C   0  0  0  0  0  0  0  0  0  0  0  0
  -12.7550  -34.6890  -11.4527 C   0  0  0  0  0  0  0  0  0  0  0  0
  -11.6922  -34.5772  -12.5248 C   0  0  0  0  0  0  0  0  0  0  0  0
  -10.3590  -34.3998  -11.7892 C   0  0  0  0  0  0  0  0  0  0  0  0
  -11.7191  -35.8388  -13.3317 C   0  0  0  0  0  0  0  0  0  0  0  0
  -11.8892  -33.3918  -13.4089 C   0  0  0  0  0  0  0  0  0  0  0  0
  -13.6540  -36.8903  -12.2586 O   0  0  0  0  0  0  0  0  0  0  0  0
  -13.9533  -38.0620  -11.8094 N   0  0  0  0  0  0  0  0  0  0  0  0
  2  1  1  1
  2  3  1  0
  3  4  1  0
  4  5  1  0
  5  6  1  0
  6  7  1  0
  7  8  1  0
  8  9  1  0
  9 10  1  0
 10 11  1  0
 11 12  1  0
 12 13  2  0
 13 14  1  0
 14 15  2  0
 15 16  1  0
 13 17  1  0
 17 18  2  0
 17 19  1  0
 19 20  1  0
 20 21  1  1
 20 22  1  0
 22 23  1  6
 22 24  1  0
 24 25  1  0
 25 26  1  0
 26 27  1  0
 26 28  1  0
 26 29  1  0
 29 30  1  0
 30 31  2  0
 31 32  1  0
 32 33  1  0
 33 34  1  0
 33 35  1  0
 33 36  1  0
 31 37  1  0
 37 38  1  0
 16 11  2  0
 21  2  1  0
 38 29  2  0
M  END
$$$$
