
     RDKit          3D

 38 40  0  0  0  0  0  0  0  0999 V2000
  -20.3803  -36.6980   -7.3580 C   0  0  0  0  0  0  0  0  0  0  0  0
  -20.4419  -37.9997   -8.1765 C   0  0  2  0  0  0  0  0  0  0  0  0
  -21.1918  -39.0013   -7.4449 C   0  0  0  0  0  0  0  0  0  0  0  0
  -22.5964  -39.2474   -7.1969 C   0  0  0  0  0  0  0  0  0  0  0  0
  -22.8312  -40.7340   -6.9734 C   0  0  0  0  0  0  0  0  0  0  0  0
  -22.2685  -41.3642   -5.7636 C   0  0  0  0  0  0  0  0  0  0  0  0
  -22.6051  -42.8634   -5.6234 C   0  0  0  0  0  0  0  0  0  0  0  0
  -21.6999  -43.6367   -4.7655 C   0  0  0  0  0  0  0  0  0  0  0  0
  -21.3220  -45.0400   -5.0157 C   0  0  0  0  0  0  0  0  0  0  0  0
  -20.3371  -45.2532   -6.0818 O   0  0  0  0  0  0  0  0  0  0  0  0
  -19.9988  -44.1291   -6.9225 C   0  0  0  0  0  0  0  0  0  0  0  0
  -19.0899  -43.1636   -6.5735 C   0  0  0  0  0  0  0  0  0  0  0  0
  -18.9064  -42.0758   -7.4103 C   0  0  0  0  0  0  0  0  0  0  0  0
  -19.6941  -42.1165   -8.5977 C   0  0  0  0  0  0  0  0  0  0  0  0
  -20.5726  -43.0760   -8.9644 C   0  0  0  0  0  0  0  0  0  0  0  0
  -20.6821  -44.0479   -8.0899 N   0  0  0  0  0  0  0  0  0  0  0  0
  -18.3278  -40.7542   -7.1838 C   0  0  0  0  0  0  0  0  0  0  0  0
  -18.9100  -40.2301   -6.0614 O   0  0  0  0  0  0  0  0  0  0  0  0
  -17.4460  -39.7631   -7.6029 N   0  0  0  0  0  0  0  0  0  0  0  0
  -17.8490  -38.6260   -8.4686 C   0  0  1  0  0  0  0  0  0  0  0  0
  -19.1978  -38.3400   -8.8806 C   0  0  0  0  0  0  0  0  0  0  0  0
  -16.9542  -37.4756   -8.2824 C   0  0  2  0  0  0  0  0  0  0  0  0
  -17.1623  -36.4748   -9.2912 O   0  0  0  0  0  0  0  0  0  0  0  0
  -15.4898  -37.6467   -8.2325 C   0  0  0  0  0  0  0  0  0  0  0  0
  -14.8353  -37.0816   -9.3916 N   0  0  0  0  0  0  0  0  0  0  0  0
  -15.0841  -37.8481  -10.5943 C   0  0  0  0  0  0  0  0  0  0  0  0
  -16.2434  -38.7661  -10.4660 C   0  0  0  0  0  0  0  0  0  0  0  0
  -15.2102  -36.9143  -11.7757 C   0  0  0  0  0  0  0  0  0  0  0  0
  -13.8485  -38.6617  -10.8116 C   0  0  0  0  0  0  0  0  0  0  0  0
  -13.4787  -39.8685  -10.2573 C   0  0  0  0  0  0  0  0  0  0  0  0
  -12.2510  -40.2302  -10.7610 C   0  0  0  0  0  0  0  0  0  0  0  0
  -11.4439  -41.4559  -10.4570 C   0  0  0  0  0  0  0  0  0  0  0  0
  -10.0896  -41.0762   -9.8973 C   0  0  0  0  0  0  0  0  0  0  0  0
   -9.2097  -40.7291  -11.1036 C   0  0  0  0  0  0  0  0  0  0  0  0
  -10.2807  -39.8993   -8.9908 C   0  0  0  0  0  0  0  0  0  0  0  0
   -9.4365  -42.1973   -9.1610 C   0  0  0  0  0  0  0  0  0  0  0  0
  -11.9060  -39.2633  -11.5897 O   0  0  0  0  0  0  0  0  0  0  0  0
  -12.8105  -38.3449  -11.6378 N   0  0  0  0  0  0  0  0  0  0  0  0
  2  1  1  1
  2  3  1  0
  3  4  1  0
  4  5  1  0
  5  6  1  0
  6  7  1  0
  7  8  1  0
  8  9  1  0
  9 10  1  0
 10 11  1  0
 11 12  1  0
 12 13  2  0
 13 14  1  0
 14 15  2  0
 15 16  1  0
 13 17  1  0
 17 18  2  0
 17 19  1  0
 19 20  1  0
 20 21  1  1
 20 22  1  0
 22 23  1  6
 22 24  1  0
 24 25  1  0
 25 26  1  0
 26 27  1  0
 26 28  1  0
 26 29  1  0
 29 30  1  0
 30 31  2  0
 31 32  1  0
 32 33  1  0
 33 34  1  0
 33 35  1  0
 33 36  1  0
 31 37  1  0
 37 38  1  0
 16 11  2  0
 21  2  1  0
 38 29  2  0
M  END
$$$$
