
     RDKit          3D

 38 40  0  0  0  0  0  0  0  0999 V2000
  -18.7749  -39.6672   -4.2574 C   0  0  0  0  0  0  0  0  0  0  0  0
  -19.7134  -39.8240   -5.4668 C   0  0  2  0  0  0  0  0  0  0  0  0
  -20.4792  -41.0475   -5.3349 C   0  0  0  0  0  0  0  0  0  0  0  0
  -21.6305  -41.4538   -4.5574 C   0  0  0  0  0  0  0  0  0  0  0  0
  -22.3882  -42.5528   -5.2877 C   0  0  0  0  0  0  0  0  0  0  0  0
  -21.7416  -43.8693   -5.4494 C   0  0  0  0  0  0  0  0  0  0  0  0
  -22.6196  -44.9147   -6.1684 C   0  0  0  0  0  0  0  0  0  0  0  0
  -21.8943  -46.0272   -6.7926 C   0  0  0  0  0  0  0  0  0  0  0  0
  -22.3016  -46.6756   -8.0528 C   0  0  0  0  0  0  0  0  0  0  0  0
  -22.0086  -45.9245   -9.2784 O   0  0  0  0  0  0  0  0  0  0  0  0
  -21.5649  -44.5572   -9.1419 C   0  0  0  0  0  0  0  0  0  0  0  0
  -20.2685  -44.2008   -8.8725 C   0  0  0  0  0  0  0  0  0  0  0  0
  -19.9647  -42.8656   -8.6676 C   0  0  0  0  0  0  0  0  0  0  0  0
  -21.0800  -41.9882   -8.8035 C   0  0  0  0  0  0  0  0  0  0  0  0
  -22.3558  -42.3257   -9.0953 C   0  0  0  0  0  0  0  0  0  0  0  0
  -22.5341  -43.6164   -9.2492 N   0  0  0  0  0  0  0  0  0  0  0  0
  -18.8269  -42.2080   -8.0306 C   0  0  0  0  0  0  0  0  0  0  0  0
  -18.6349  -42.7955   -6.8094 O   0  0  0  0  0  0  0  0  0  0  0  0
  -17.8381  -41.2316   -8.0966 N   0  0  0  0  0  0  0  0  0  0  0  0
  -17.9992  -39.8682   -7.5308 C   0  0  1  0  0  0  0  0  0  0  0  0
  -19.1263  -39.4252   -6.7535 C   0  0  0  0  0  0  0  0  0  0  0  0
  -16.6959  -39.2705   -7.2099 C   0  0  2  0  0  0  0  0  0  0  0  0
  -16.7971  -37.8503   -7.0222 O   0  0  0  0  0  0  0  0  0  0  0  0
  -15.5361  -39.4402   -8.1056 C   0  0  0  0  0  0  0  0  0  0  0  0
  -15.3978  -38.3389   -9.0326 N   0  0  0  0  0  0  0  0  0  0  0  0
  -14.9599  -38.7720  -10.3428 C   0  0  0  0  0  0  0  0  0  0  0  0
  -13.5710  -39.2955  -10.3450 C   0  0  0  0  0  0  0  0  0  0  0  0
  -15.9537  -39.7585  -10.9109 C   0  0  0  0  0  0  0  0  0  0  0  0
  -15.0150  -37.5518  -11.2054 C   0  0  0  0  0  0  0  0  0  0  0  0
  -14.5592  -37.3605  -12.4922 C   0  0  0  0  0  0  0  0  0  0  0  0
  -14.8337  -36.0675  -12.8722 C   0  0  0  0  0  0  0  0  0  0  0  0
  -14.5297  -35.3956  -14.1770 C   0  0  0  0  0  0  0  0  0  0  0  0
  -13.1259  -34.8293  -14.1698 C   0  0  0  0  0  0  0  0  0  0  0  0
  -13.2155  -33.4715  -13.4638 C   0  0  0  0  0  0  0  0  0  0  0  0
  -12.2479  -35.7871  -13.4248 C   0  0  0  0  0  0  0  0  0  0  0  0
  -12.5920  -34.5973  -15.5434 C   0  0  0  0  0  0  0  0  0  0  0  0
  -15.4349  -35.5112  -11.8380 O   0  0  0  0  0  0  0  0  0  0  0  0
  -15.5524  -36.3462  -10.8618 N   0  0  0  0  0  0  0  0  0  0  0  0
  2  1  1  1
  2  3  1  0
  3  4  1  0
  4  5  1  0
  5  6  1  0
  6  7  1  0
  7  8  1  0
  8  9  1  0
  9 10  1  0
 10 11  1  0
 11 12  1  0
 12 13  2  0
 13 14  1  0
 14 15  2  0
 15 16  1  0
 13 17  1  0
 17 18  2  0
 17 19  1  0
 19 20  1  0
 20 21  1  1
 20 22  1  0
 22 23  1  6
 22 24  1  0
 24 25  1  0
 25 26  1  0
 26 27  1  0
 26 28  1  0
 26 29  1  0
 29 30  1  0
 30 31  2  0
 31 32  1  0
 32 33  1  0
 33 34  1  0
 33 35  1  0
 33 36  1  0
 31 37  1  0
 37 38  1  0
 16 11  2  0
 21  2  1  0
 38 29  2  0
M  END
$$$$
