
     RDKit          3D

 38 40  0  0  0  0  0  0  0  0999 V2000
  -20.6746  -37.4063   -7.6547 C   0  0  0  0  0  0  0  0  0  0  0  0
  -20.8312  -38.8009   -8.2860 C   0  0  2  0  0  0  0  0  0  0  0  0
  -21.7258  -39.6051   -7.4774 C   0  0  0  0  0  0  0  0  0  0  0  0
  -23.1606  -39.6712   -7.2984 C   0  0  0  0  0  0  0  0  0  0  0  0
  -23.5679  -41.0783   -6.8872 C   0  0  0  0  0  0  0  0  0  0  0  0
  -23.1462  -41.5778   -5.5643 C   0  0  0  0  0  0  0  0  0  0  0  0
  -23.6513  -42.9994   -5.2409 C   0  0  0  0  0  0  0  0  0  0  0  0
  -22.8855  -43.7253   -4.2211 C   0  0  0  0  0  0  0  0  0  0  0  0
  -22.6491  -45.1807   -4.2457 C   0  0  0  0  0  0  0  0  0  0  0  0
  -21.6347  -45.6445   -5.1985 O   0  0  0  0  0  0  0  0  0  0  0  0
  -21.1292  -44.6946   -6.1614 C   0  0  0  0  0  0  0  0  0  0  0  0
  -20.1418  -43.7839   -5.8864 C   0  0  0  0  0  0  0  0  0  0  0  0
  -19.7941  -42.8538   -6.8514 C   0  0  0  0  0  0  0  0  0  0  0  0
  -20.5133  -42.9889   -8.0748 C   0  0  0  0  0  0  0  0  0  0  0  0
  -21.4689  -43.8993   -8.3659 C   0  0  0  0  0  0  0  0  0  0  0  0
  -21.7327  -44.7172   -7.3745 N   0  0  0  0  0  0  0  0  0  0  0  0
  -19.0888  -41.5776   -6.7706 C   0  0  0  0  0  0  0  0  0  0  0  0
  -19.6728  -40.8397   -5.7767 O   0  0  0  0  0  0  0  0  0  0  0  0
  -18.0822  -40.7511   -7.2598 N   0  0  0  0  0  0  0  0  0  0  0  0
  -18.3096  -39.7183   -8.3021 C   0  0  1  0  0  0  0  0  0  0  0  0
  -19.5939  -39.3627   -8.8452 C   0  0  0  0  0  0  0  0  0  0  0  0
  -17.3068  -38.6479   -8.2146 C   0  0  2  0  0  0  0  0  0  0  0  0
  -17.8597  -37.3740   -8.5808 O   0  0  0  0  0  0  0  0  0  0  0  0
  -16.0384  -38.7261   -8.9639 C   0  0  0  0  0  0  0  0  0  0  0  0
  -15.2842  -39.9155   -8.6358 N   0  0  0  0  0  0  0  0  0  0  0  0
  -14.6713  -40.5190   -9.8004 C   0  0  0  0  0  0  0  0  0  0  0  0
  -14.0437  -41.8321   -9.5090 C   0  0  0  0  0  0  0  0  0  0  0  0
  -15.6785  -40.5928  -10.9245 C   0  0  0  0  0  0  0  0  0  0  0  0
  -13.6061  -39.5622  -10.2315 C   0  0  0  0  0  0  0  0  0  0  0  0
  -13.0659  -39.3492  -11.4818 C   0  0  0  0  0  0  0  0  0  0  0  0
  -12.1105  -38.3640  -11.3900 C   0  0  0  0  0  0  0  0  0  0  0  0
  -11.2552  -37.7915  -12.4795 C   0  0  0  0  0  0  0  0  0  0  0  0
   -9.9681  -37.2353  -11.9092 C   0  0  0  0  0  0  0  0  0  0  0  0
   -8.8720  -38.2487  -12.2580 C   0  0  0  0  0  0  0  0  0  0  0  0
   -9.7194  -35.9042  -12.5491 C   0  0  0  0  0  0  0  0  0  0  0  0
  -10.0090  -37.0975  -10.4242 C   0  0  0  0  0  0  0  0  0  0  0  0
  -12.0876  -38.0057  -10.1205 O   0  0  0  0  0  0  0  0  0  0  0  0
  -12.9415  -38.6819   -9.4292 N   0  0  0  0  0  0  0  0  0  0  0  0
  2  1  1  1
  2  3  1  0
  3  4  1  0
  4  5  1  0
  5  6  1  0
  6  7  1  0
  7  8  1  0
  8  9  1  0
  9 10  1  0
 10 11  1  0
 11 12  1  0
 12 13  2  0
 13 14  1  0
 14 15  2  0
 15 16  1  0
 13 17  1  0
 17 18  2  0
 17 19  1  0
 19 20  1  0
 20 21  1  1
 20 22  1  0
 22 23  1  6
 22 24  1  0
 24 25  1  0
 25 26  1  0
 26 27  1  0
 26 28  1  0
 26 29  1  0
 29 30  1  0
 30 31  2  0
 31 32  1  0
 32 33  1  0
 33 34  1  0
 33 35  1  0
 33 36  1  0
 31 37  1  0
 37 38  1  0
 16 11  2  0
 21  2  1  0
 38 29  2  0
M  END
$$$$
