
     RDKit          3D

 38 40  0  0  0  0  0  0  0  0999 V2000
  -16.9208  -43.9457  -10.8017 C   0  0  0  0  0  0  0  0  0  0  0  0
  -17.2950  -44.2829   -9.3476 C   0  0  2  0  0  0  0  0  0  0  0  0
  -18.7257  -44.4924   -9.2478 C   0  0  0  0  0  0  0  0  0  0  0  0
  -19.6268  -45.5722   -9.5898 C   0  0  0  0  0  0  0  0  0  0  0  0
  -20.8465  -45.5379   -8.6808 C   0  0  0  0  0  0  0  0  0  0  0  0
  -21.7854  -44.4059   -8.8006 C   0  0  0  0  0  0  0  0  0  0  0  0
  -23.0036  -44.4996   -7.8584 C   0  0  0  0  0  0  0  0  0  0  0  0
  -23.6749  -43.2280   -7.5653 C   0  0  0  0  0  0  0  0  0  0  0  0
  -24.2889  -42.8982   -6.2657 C   0  0  0  0  0  0  0  0  0  0  0  0
  -23.3543  -42.5405   -5.1930 O   0  0  0  0  0  0  0  0  0  0  0  0
  -21.9454  -42.7528   -5.4271 C   0  0  0  0  0  0  0  0  0  0  0  0
  -21.1480  -41.8771   -6.1181 C   0  0  0  0  0  0  0  0  0  0  0  0
  -19.8299  -42.2188   -6.3687 C   0  0  0  0  0  0  0  0  0  0  0  0
  -19.4417  -43.4770   -5.8224 C   0  0  0  0  0  0  0  0  0  0  0  0
  -20.2114  -44.3353   -5.1169 C   0  0  0  0  0  0  0  0  0  0  0  0
  -21.4459  -43.9210   -4.9561 N   0  0  0  0  0  0  0  0  0  0  0  0
  -18.8577  -41.7211   -7.3382 C   0  0  0  0  0  0  0  0  0  0  0  0
  -19.4548  -41.7284   -8.5698 O   0  0  0  0  0  0  0  0  0  0  0  0
  -17.5745  -41.2443   -7.5861 N   0  0  0  0  0  0  0  0  0  0  0  0
  -16.4493  -42.1146   -8.0120 C   0  0  1  0  0  0  0  0  0  0  0  0
  -16.5630  -43.5129   -8.3324 C   0  0  0  0  0  0  0  0  0  0  0  0
  -15.4338  -41.3464   -8.7451 C   0  0  2  0  0  0  0  0  0  0  0  0
  -14.2685  -42.1391   -9.0216 O   0  0  0  0  0  0  0  0  0  0  0  0
  -14.8975  -40.0813   -8.2082 C   0  0  0  0  0  0  0  0  0  0  0  0
  -15.9465  -39.1466   -7.8657 N   0  0  0  0  0  0  0  0  0  0  0  0
  -16.3907  -38.3735   -9.0063 C   0  0  0  0  0  0  0  0  0  0  0  0
  -15.7659  -37.0288   -9.0727 C   0  0  0  0  0  0  0  0  0  0  0  0
  -16.1869  -39.1723  -10.2728 C   0  0  0  0  0  0  0  0  0  0  0  0
  -17.8662  -38.2097   -8.8269 C   0  0  0  0  0  0  0  0  0  0  0  0
  -18.5986  -38.0215   -7.6743 C   0  0  0  0  0  0  0  0  0  0  0  0
  -19.9298  -37.9227   -8.0060 C   0  0  0  0  0  0  0  0  0  0  0  0
  -21.1033  -37.7152   -7.0972 C   0  0  0  0  0  0  0  0  0  0  0  0
  -21.7608  -36.3799   -7.3732 C   0  0  0  0  0  0  0  0  0  0  0  0
  -20.6210  -35.3731   -7.5661 C   0  0  0  0  0  0  0  0  0  0  0  0
  -22.5916  -36.5240   -8.6110 C   0  0  0  0  0  0  0  0  0  0  0  0
  -22.6024  -35.9070   -6.2357 C   0  0  0  0  0  0  0  0  0  0  0  0
  -19.9812  -38.0492   -9.3182 O   0  0  0  0  0  0  0  0  0  0  0  0
  -18.8036  -38.2161   -9.8176 N   0  0  0  0  0  0  0  0  0  0  0  0
  2  1  1  6
  2  3  1  0
  3  4  1  0
  4  5  1  0
  5  6  1  0
  6  7  1  0
  7  8  1  0
  8  9  1  0
  9 10  1  0
 10 11  1  0
 11 12  1  0
 12 13  2  0
 13 14  1  0
 14 15  2  0
 15 16  1  0
 13 17  1  0
 17 18  2  0
 17 19  1  0
 19 20  1  0
 20 21  1  6
 20 22  1  0
 22 23  1  1
 22 24  1  0
 24 25  1  0
 25 26  1  0
 26 27  1  0
 26 28  1  0
 26 29  1  0
 29 30  1  0
 30 31  2  0
 31 32  1  0
 32 33  1  0
 33 34  1  0
 33 35  1  0
 33 36  1  0
 31 37  1  0
 37 38  1  0
 16 11  2  0
 21  2  1  0
 38 29  2  0
M  END
$$$$
