
     RDKit          3D

 46 50  0  0  0  0  0  0  0  0999 V2000
  -15.6983  -47.8576  -11.3140 C   0  0  0  0  0  0  0  0  0  0  0  0
  -16.1316  -46.6818  -10.5891 N   0  0  0  0  0  0  0  0  0  0  0  0
  -15.1719  -45.9107   -9.8313 C   0  0  0  0  0  0  0  0  0  0  0  0
  -17.4780  -46.2805  -10.6136 C   0  0  0  0  0  0  0  0  0  0  0  0
  -18.2992  -46.8919  -11.3321 O   0  0  0  0  0  0  0  0  0  0  0  0
  -17.9774  -45.1532   -9.8198 C   0  0  0  0  0  0  0  0  0  0  0  0
  -18.7102  -45.3244   -8.6847 C   0  0  0  0  0  0  0  0  0  0  0  0
  -19.2025  -44.2489   -7.8925 C   0  0  0  0  0  0  0  0  0  0  0  0
  -18.9234  -42.9615   -8.2967 C   0  0  0  0  0  0  0  0  0  0  0  0
  -18.1866  -42.7171   -9.4373 C   0  0  0  0  0  0  0  0  0  0  0  0
  -17.7354  -43.8599  -10.1654 C   0  0  0  0  0  0  0  0  0  0  0  0
  -17.7564  -41.4690  -10.0801 C   0  0  0  0  0  0  0  0  0  0  0  0
  -16.5614  -41.5165  -10.6798 O   0  0  0  0  0  0  0  0  0  0  0  0
  -18.2747  -40.1797  -10.2525 N   0  0  0  0  0  0  0  0  0  0  0  0
  -18.6978  -39.1905   -9.2571 C   0  0  1  0  0  0  0  0  0  0  0  0
  -20.1672  -38.9758   -9.3474 C   0  0  0  0  0  0  0  0  0  0  0  0
  -20.9265  -38.9916   -8.0651 C   0  0  0  0  0  0  0  0  0  0  0  0
  -21.4741  -40.0218   -7.3596 C   0  0  0  0  0  0  0  0  0  0  0  0
  -22.1512  -39.7332   -6.1849 C   0  0  0  0  0  0  0  0  0  0  0  0
  -22.7816  -40.5735   -5.3100 O   0  0  0  0  0  0  0  0  0  0  0  0
  -23.0166  -41.7772   -4.8085 C   0  0  0  0  0  0  0  0  0  0  0  0
  -22.1696  -42.9814   -5.1827 C   0  0  0  0  0  0  0  0  0  0  0  0
  -20.9200  -43.2320   -5.0558 C   0  0  0  0  0  0  0  0  0  0  0  0
  -20.0204  -44.3992   -5.4020 C   0  0  0  0  0  0  0  0  0  0  0  0
  -19.9332  -44.7732   -6.7862 N   0  0  0  0  0  0  0  0  0  0  0  0
  -22.2548  -38.3867   -5.7518 C   0  0  0  0  0  0  0  0  0  0  0  0
  -22.9280  -38.0510   -4.5854 F   0  0  0  0  0  0  0  0  0  0  0  0
  -21.7158  -37.3279   -6.4359 C   0  0  0  0  0  0  0  0  0  0  0  0
  -21.0585  -37.6625   -7.5874 C   0  0  0  0  0  0  0  0  0  0  0  0
  -18.0541  -39.3056   -7.9369 C   0  0  2  0  0  0  0  0  0  0  0  0
  -18.6057  -38.3846   -7.0458 O   0  0  0  0  0  0  0  0  0  0  0  0
  -16.5792  -38.8786   -8.1451 C   0  0  0  0  0  0  0  0  0  0  0  0
  -15.7936  -39.9682   -8.6098 N   0  0  0  0  0  0  0  0  0  0  0  0
  -14.6180  -39.5779   -9.3560 C   0  0  0  0  0  0  0  0  0  0  0  0
  -13.8210  -40.7722   -9.8768 C   0  0  0  0  0  0  0  0  0  0  0  0
  -13.2855  -39.8841   -8.7741 C   0  0  0  0  0  0  0  0  0  0  0  0
  -14.6579  -38.3701  -10.1889 C   0  0  0  0  0  0  0  0  0  0  0  0
  -13.5120  -37.6824  -10.5482 C   0  0  0  0  0  0  0  0  0  0  0  0
  -13.5157  -36.5512  -11.3222 C   0  0  0  0  0  0  0  0  0  0  0  0
  -14.7288  -36.0741  -11.7661 C   0  0  0  0  0  0  0  0  0  0  0  0
  -15.9039  -36.6979  -11.4532 C   0  0  0  0  0  0  0  0  0  0  0  0
  -15.8417  -37.8523  -10.6575 C   0  0  0  0  0  0  0  0  0  0  0  0
  -12.2693  -35.8380  -11.6894 C   0  0  0  0  0  0  0  0  0  0  0  0
  -11.6631  -36.3744  -12.9619 C   0  0  0  0  0  0  0  0  0  0  0  0
  -12.6436  -34.3858  -11.9379 C   0  0  0  0  0  0  0  0  0  0  0  0
  -11.2486  -35.8395  -10.5670 C   0  0  0  0  0  0  0  0  0  0  0  0
  1  2  1  0
  2  3  1  0
  2  4  1  0
  4  5  2  0
  4  6  1  0
  6  7  2  0
  7  8  1  0
  8  9  2  0
  9 10  1  0
 10 11  2  0
 10 12  1  0
 12 13  2  0
 12 14  1  0
 14 15  1  0
 15 16  1  1
 16 17  1  0
 17 18  2  0
 18 19  1  0
 19 20  1  0
 20 21  1  0
 21 22  1  0
 22 23  2  0
 23 24  1  0
 24 25  1  0
 19 26  2  0
 26 27  1  0
 26 28  1  0
 28 29  2  0
 15 30  1  0
 30 31  1  1
 30 32  1  0
 32 33  1  0
 33 34  1  0
 34 35  1  0
 35 36  1  0
 34 37  1  0
 37 38  2  0
 38 39  1  0
 39 40  2  0
 40 41  1  0
 41 42  2  0
 39 43  1  0
 43 44  1  0
 43 45  1  0
 43 46  1  0
 11  6  1  0
 25  8  1  0
 29 17  1  0
 36 34  1  0
 42 37  1  0
M  END
$$$$
