
     RDKit          3D

 46 50  0  0  0  0  0  0  0  0999 V2000
  -17.7205  -48.5729  -11.5660 C   0  0  0  0  0  0  0  0  0  0  0  0
  -18.2270  -47.4063  -10.8745 N   0  0  0  0  0  0  0  0  0  0  0  0
  -19.4419  -46.7707  -11.3326 C   0  0  0  0  0  0  0  0  0  0  0  0
  -17.5495  -46.8832   -9.7602 C   0  0  0  0  0  0  0  0  0  0  0  0
  -16.5456  -47.4745   -9.3053 O   0  0  0  0  0  0  0  0  0  0  0  0
  -17.9730  -45.6498   -9.0896 C   0  0  0  0  0  0  0  0  0  0  0  0
  -18.9166  -45.6370   -8.1077 C   0  0  0  0  0  0  0  0  0  0  0  0
  -19.3423  -44.4559   -7.4365 C   0  0  0  0  0  0  0  0  0  0  0  0
  -18.7688  -43.2572   -7.8011 C   0  0  0  0  0  0  0  0  0  0  0  0
  -17.8073  -43.1990   -8.7888 C   0  0  0  0  0  0  0  0  0  0  0  0
  -17.4449  -44.4361   -9.4036 C   0  0  0  0  0  0  0  0  0  0  0  0
  -17.0517  -42.0765   -9.3592 C   0  0  0  0  0  0  0  0  0  0  0  0
  -15.7966  -42.3592   -9.7262 O   0  0  0  0  0  0  0  0  0  0  0  0
  -17.2908  -40.7265   -9.6439 N   0  0  0  0  0  0  0  0  0  0  0  0
  -17.7016  -39.6326   -8.7590 C   0  0  1  0  0  0  0  0  0  0  0  0
  -19.0681  -39.1707   -9.1233 C   0  0  0  0  0  0  0  0  0  0  0  0
  -20.0359  -38.9934   -8.0039 C   0  0  0  0  0  0  0  0  0  0  0  0
  -20.8771  -39.8782   -7.3969 C   0  0  0  0  0  0  0  0  0  0  0  0
  -21.6914  -39.4208   -6.3726 C   0  0  0  0  0  0  0  0  0  0  0  0
  -22.6092  -40.0963   -5.6173 O   0  0  0  0  0  0  0  0  0  0  0  0
  -23.1426  -41.2157   -5.1502 C   0  0  0  0  0  0  0  0  0  0  0  0
  -22.4720  -42.5651   -5.3429 C   0  0  0  0  0  0  0  0  0  0  0  0
  -21.3311  -43.0224   -4.9829 C   0  0  0  0  0  0  0  0  0  0  0  0
  -20.6081  -44.3432   -5.1389 C   0  0  0  0  0  0  0  0  0  0  0  0
  -20.3420  -44.7921   -6.4772 N   0  0  0  0  0  0  0  0  0  0  0  0
  -21.6280  -38.0577   -5.9863 C   0  0  0  0  0  0  0  0  0  0  0  0
  -22.4287  -37.5551   -4.9701 F   0  0  0  0  0  0  0  0  0  0  0  0
  -20.7938  -37.1423   -6.5742 C   0  0  0  0  0  0  0  0  0  0  0  0
  -20.0111  -37.6404   -7.5788 C   0  0  0  0  0  0  0  0  0  0  0  0
  -17.3370  -39.7947   -7.3407 C   0  0  2  0  0  0  0  0  0  0  0  0
  -17.3510  -38.5597   -6.6917 O   0  0  0  0  0  0  0  0  0  0  0  0
  -15.8630  -40.2725   -7.3333 C   0  0  0  0  0  0  0  0  0  0  0  0
  -15.0243  -39.3496   -8.0154 N   0  0  0  0  0  0  0  0  0  0  0  0
  -14.3016  -39.9161   -9.1323 C   0  0  0  0  0  0  0  0  0  0  0  0
  -14.3352  -41.4430   -9.1492 C   0  0  0  0  0  0  0  0  0  0  0  0
  -13.0612  -40.6832   -8.8475 C   0  0  0  0  0  0  0  0  0  0  0  0
  -14.3062  -39.2204  -10.4246 C   0  0  0  0  0  0  0  0  0  0  0  0
  -14.9187  -37.9918  -10.6000 C   0  0  0  0  0  0  0  0  0  0  0  0
  -14.9426  -37.3180  -11.7934 C   0  0  0  0  0  0  0  0  0  0  0  0
  -14.3217  -37.8978  -12.8772 C   0  0  0  0  0  0  0  0  0  0  0  0
  -13.6956  -39.1090  -12.7830 C   0  0  0  0  0  0  0  0  0  0  0  0
  -13.7017  -39.7551  -11.5372 C   0  0  0  0  0  0  0  0  0  0  0  0
  -15.6079  -36.0024  -11.9475 C   0  0  0  0  0  0  0  0  0  0  0  0
  -14.6531  -34.8554  -11.7302 C   0  0  0  0  0  0  0  0  0  0  0  0
  -16.1036  -35.9192  -13.3820 C   0  0  0  0  0  0  0  0  0  0  0  0
  -16.8271  -35.8615  -11.0557 C   0  0  0  0  0  0  0  0  0  0  0  0
  1  2  1  0
  2  3  1  0
  2  4  1  0
  4  5  2  0
  4  6  1  0
  6  7  2  0
  7  8  1  0
  8  9  2  0
  9 10  1  0
 10 11  2  0
 10 12  1  0
 12 13  2  0
 12 14  1  0
 14 15  1  0
 15 16  1  1
 16 17  1  0
 17 18  2  0
 18 19  1  0
 19 20  1  0
 20 21  1  0
 21 22  1  0
 22 23  2  0
 23 24  1  0
 24 25  1  0
 19 26  2  0
 26 27  1  0
 26 28  1  0
 28 29  2  0
 15 30  1  0
 30 31  1  1
 30 32  1  0
 32 33  1  0
 33 34  1  0
 34 35  1  0
 35 36  1  0
 34 37  1  0
 37 38  2  0
 38 39  1  0
 39 40  2  0
 40 41  1  0
 41 42  2  0
 39 43  1  0
 43 44  1  0
 43 45  1  0
 43 46  1  0
 11  6  1  0
 25  8  1  0
 29 17  1  0
 36 34  1  0
 42 37  1  0
M  END
$$$$
