
     RDKit          3D

 46 50  0  0  0  0  0  0  0  0999 V2000
  -16.4398  -48.7821  -10.4416 C   0  0  0  0  0  0  0  0  0  0  0  0
  -16.8135  -47.5260   -9.8264 N   0  0  0  0  0  0  0  0  0  0  0  0
  -15.8170  -46.7408   -9.1334 C   0  0  0  0  0  0  0  0  0  0  0  0
  -18.1374  -47.0601   -9.8952 C   0  0  0  0  0  0  0  0  0  0  0  0
  -19.0001  -47.7194  -10.5162 O   0  0  0  0  0  0  0  0  0  0  0  0
  -18.5653  -45.8095   -9.2603 C   0  0  0  0  0  0  0  0  0  0  0  0
  -19.3201  -45.7844   -8.1270 C   0  0  0  0  0  0  0  0  0  0  0  0
  -19.7445  -44.5857   -7.4870 C   0  0  0  0  0  0  0  0  0  0  0  0
  -19.3721  -43.3824   -8.0455 C   0  0  0  0  0  0  0  0  0  0  0  0
  -18.6082  -43.3361   -9.1933 C   0  0  0  0  0  0  0  0  0  0  0  0
  -18.2301  -44.5903   -9.7621 C   0  0  0  0  0  0  0  0  0  0  0  0
  -18.0852  -42.2122   -9.9805 C   0  0  0  0  0  0  0  0  0  0  0  0
  -16.8902  -42.4168  -10.5463 O   0  0  0  0  0  0  0  0  0  0  0  0
  -18.5105  -40.9233  -10.3248 N   0  0  0  0  0  0  0  0  0  0  0  0
  -18.8741  -39.7887   -9.4710 C   0  0  1  0  0  0  0  0  0  0  0  0
  -20.3239  -39.4882   -9.6160 C   0  0  0  0  0  0  0  0  0  0  0  0
  -21.0959  -39.2887   -8.3569 C   0  0  0  0  0  0  0  0  0  0  0  0
  -21.7214  -40.1809   -7.5374 C   0  0  0  0  0  0  0  0  0  0  0  0
  -22.3890  -39.6995   -6.4220 C   0  0  0  0  0  0  0  0  0  0  0  0
  -23.0856  -40.3766   -5.4600 O   0  0  0  0  0  0  0  0  0  0  0  0
  -23.4093  -41.4877   -4.8148 C   0  0  0  0  0  0  0  0  0  0  0  0
  -22.6444  -42.7845   -5.0171 C   0  0  0  0  0  0  0  0  0  0  0  0
  -21.4166  -43.1010   -4.8355 C   0  0  0  0  0  0  0  0  0  0  0  0
  -20.5970  -44.3611   -5.0138 C   0  0  0  0  0  0  0  0  0  0  0  0
  -20.5216  -44.9137   -6.3375 N   0  0  0  0  0  0  0  0  0  0  0  0
  -22.4030  -38.3049   -6.1648 C   0  0  0  0  0  0  0  0  0  0  0  0
  -23.0634  -37.7781   -5.0636 F   0  0  0  0  0  0  0  0  0  0  0  0
  -21.7844  -37.3810   -6.9669 C   0  0  0  0  0  0  0  0  0  0  0  0
  -21.1399  -37.9036   -8.0539 C   0  0  0  0  0  0  0  0  0  0  0  0
  -18.2539  -39.7778   -8.1346 C   0  0  2  0  0  0  0  0  0  0  0  0
  -18.1618  -38.4717   -7.6528 O   0  0  0  0  0  0  0  0  0  0  0  0
  -16.7985  -40.2692   -8.3381 C   0  0  0  0  0  0  0  0  0  0  0  0
  -16.0715  -39.3783   -9.1734 N   0  0  0  0  0  0  0  0  0  0  0  0
  -14.9140  -39.9689   -9.8077 C   0  0  0  0  0  0  0  0  0  0  0  0
  -14.9095  -41.4945   -9.7341 C   0  0  0  0  0  0  0  0  0  0  0  0
  -13.9206  -40.6616   -8.9467 C   0  0  0  0  0  0  0  0  0  0  0  0
  -14.3496  -39.3433  -11.0095 C   0  0  0  0  0  0  0  0  0  0  0  0
  -13.1542  -38.6463  -10.9875 C   0  0  0  0  0  0  0  0  0  0  0  0
  -12.6022  -38.0492  -12.0909 C   0  0  0  0  0  0  0  0  0  0  0  0
  -13.2765  -38.1498  -13.2873 C   0  0  0  0  0  0  0  0  0  0  0  0
  -14.4625  -38.8214  -13.3890 C   0  0  0  0  0  0  0  0  0  0  0  0
  -14.9822  -39.4137  -12.2277 C   0  0  0  0  0  0  0  0  0  0  0  0
  -11.3189  -37.3097  -12.0332 C   0  0  0  0  0  0  0  0  0  0  0  0
  -11.3914  -36.1196  -11.1098 C   0  0  0  0  0  0  0  0  0  0  0  0
  -10.2797  -38.2643  -11.4679 C   0  0  0  0  0  0  0  0  0  0  0  0
  -10.8275  -36.8936  -13.4068 C   0  0  0  0  0  0  0  0  0  0  0  0
  1  2  1  0
  2  3  1  0
  2  4  1  0
  4  5  2  0
  4  6  1  0
  6  7  2  0
  7  8  1  0
  8  9  2  0
  9 10  1  0
 10 11  2  0
 10 12  1  0
 12 13  2  0
 12 14  1  0
 14 15  1  0
 15 16  1  1
 16 17  1  0
 17 18  2  0
 18 19  1  0
 19 20  1  0
 20 21  1  0
 21 22  1  0
 22 23  2  0
 23 24  1  0
 24 25  1  0
 19 26  2  0
 26 27  1  0
 26 28  1  0
 28 29  2  0
 15 30  1  0
 30 31  1  6
 30 32  1  0
 32 33  1  0
 33 34  1  0
 34 35  1  0
 35 36  1  0
 34 37  1  0
 37 38  2  0
 38 39  1  0
 39 40  2  0
 40 41  1  0
 41 42  2  0
 39 43  1  0
 43 44  1  0
 43 45  1  0
 43 46  1  0
 11  6  1  0
 25  8  1  0
 29 17  1  0
 36 34  1  0
 42 37  1  0
M  END
$$$$
