
     RDKit          3D

 46 50  0  0  0  0  0  0  0  0999 V2000
  -12.7689  -46.1932   -8.1357 C   0  0  0  0  0  0  0  0  0  0  0  0
  -13.4923  -44.9463   -8.2686 N   0  0  0  0  0  0  0  0  0  0  0  0
  -13.4263  -43.9613   -7.2126 C   0  0  0  0  0  0  0  0  0  0  0  0
  -14.2600  -44.6818   -9.4154 C   0  0  0  0  0  0  0  0  0  0  0  0
  -14.3840  -45.5575  -10.2998 O   0  0  0  0  0  0  0  0  0  0  0  0
  -14.9373  -43.3990   -9.6300 C   0  0  0  0  0  0  0  0  0  0  0  0
  -14.7506  -42.6512  -10.7527 C   0  0  0  0  0  0  0  0  0  0  0  0
  -15.3990  -41.4060  -10.9893 C   0  0  0  0  0  0  0  0  0  0  0  0
  -16.2635  -40.9291  -10.0282 C   0  0  0  0  0  0  0  0  0  0  0  0
  -16.4977  -41.6363   -8.8670 C   0  0  0  0  0  0  0  0  0  0  0  0
  -15.8021  -42.8749   -8.7201 C   0  0  0  0  0  0  0  0  0  0  0  0
  -17.3514  -41.3609   -7.7044 C   0  0  0  0  0  0  0  0  0  0  0  0
  -17.9061  -42.4365   -7.1341 O   0  0  0  0  0  0  0  0  0  0  0  0
  -17.7647  -40.2311   -6.9878 N   0  0  0  0  0  0  0  0  0  0  0  0
  -18.4790  -39.0340   -7.4408 C   0  0  1  0  0  0  0  0  0  0  0  0
  -17.5929  -37.8437   -7.3356 C   0  0  0  0  0  0  0  0  0  0  0  0
  -17.5420  -36.9397   -8.5193 C   0  0  0  0  0  0  0  0  0  0  0  0
  -16.7720  -36.9769   -9.6439 C   0  0  0  0  0  0  0  0  0  0  0  0
  -16.9321  -35.9754  -10.5888 C   0  0  0  0  0  0  0  0  0  0  0  0
  -16.2901  -35.7875  -11.7812 O   0  0  0  0  0  0  0  0  0  0  0  0
  -15.5447  -36.2184  -12.7883 C   0  0  0  0  0  0  0  0  0  0  0  0
  -15.2066  -37.6889  -12.9642 C   0  0  0  0  0  0  0  0  0  0  0  0
  -15.9350  -38.7294  -13.1293 C   0  0  0  0  0  0  0  0  0  0  0  0
  -15.6663  -40.2081  -13.3104 C   0  0  0  0  0  0  0  0  0  0  0  0
  -14.9770  -40.8854  -12.2477 N   0  0  0  0  0  0  0  0  0  0  0  0
  -17.8842  -34.9487  -10.3633 C   0  0  0  0  0  0  0  0  0  0  0  0
  -18.0740  -33.9233  -11.2792 F   0  0  0  0  0  0  0  0  0  0  0  0
  -18.6746  -34.8816   -9.2452 C   0  0  0  0  0  0  0  0  0  0  0  0
  -18.4802  -35.8905   -8.3428 C   0  0  0  0  0  0  0  0  0  0  0  0
  -19.3243  -39.2148   -8.6339 C   0  0  2  0  0  0  0  0  0  0  0  0
  -20.0222  -38.0404   -8.9170 O   0  0  0  0  0  0  0  0  0  0  0  0
  -20.3900  -40.2697   -8.2433 C   0  0  0  0  0  0  0  0  0  0  0  0
  -21.2290  -39.7860   -7.2029 N   0  0  0  0  0  0  0  0  0  0  0  0
  -21.3974  -40.7049   -6.0992 C   0  0  0  0  0  0  0  0  0  0  0  0
  -21.1278  -40.0592   -4.7416 C   0  0  0  0  0  0  0  0  0  0  0  0
  -20.1919  -41.0968   -5.3238 C   0  0  0  0  0  0  0  0  0  0  0  0
  -22.4406  -41.7351   -6.1684 C   0  0  0  0  0  0  0  0  0  0  0  0
  -23.1861  -41.9558   -7.3133 C   0  0  0  0  0  0  0  0  0  0  0  0
  -24.1679  -42.9074   -7.4092 C   0  0  0  0  0  0  0  0  0  0  0  0
  -24.4252  -43.6863   -6.3031 C   0  0  0  0  0  0  0  0  0  0  0  0
  -23.7314  -43.5283   -5.1363 C   0  0  0  0  0  0  0  0  0  0  0  0
  -22.7370  -42.5389   -5.0936 C   0  0  0  0  0  0  0  0  0  0  0  0
  -24.9485  -43.1184   -8.6515 C   0  0  0  0  0  0  0  0  0  0  0  0
  -25.8403  -41.9439   -8.9670 C   0  0  0  0  0  0  0  0  0  0  0  0
  -23.9485  -43.2517   -9.7886 C   0  0  0  0  0  0  0  0  0  0  0  0
  -25.7490  -44.4067   -8.6212 C   0  0  0  0  0  0  0  0  0  0  0  0
  1  2  1  0
  2  3  1  0
  2  4  1  0
  4  5  2  0
  4  6  1  0
  6  7  2  0
  7  8  1  0
  8  9  2  0
  9 10  1  0
 10 11  2  0
 10 12  1  0
 12 13  2  0
 12 14  1  0
 14 15  1  0
 15 16  1  6
 16 17  1  0
 17 18  2  0
 18 19  1  0
 19 20  1  0
 20 21  1  0
 21 22  1  0
 22 23  2  0
 23 24  1  0
 24 25  1  0
 19 26  2  0
 26 27  1  0
 26 28  1  0
 28 29  2  0
 15 30  1  0
 30 31  1  1
 30 32  1  0
 32 33  1  0
 33 34  1  0
 34 35  1  0
 35 36  1  0
 34 37  1  0
 37 38  2  0
 38 39  1  0
 39 40  2  0
 40 41  1  0
 41 42  2  0
 39 43  1  0
 43 44  1  0
 43 45  1  0
 43 46  1  0
 11  6  1  0
 25  8  1  0
 29 17  1  0
 36 34  1  0
 42 37  1  0
M  END
$$$$
