
     RDKit          3D

 46 50  0  0  0  0  0  0  0  0999 V2000
  -17.1323  -48.8392  -10.6216 C   0  0  0  0  0  0  0  0  0  0  0  0
  -17.5783  -47.5121  -10.2532 N   0  0  0  0  0  0  0  0  0  0  0  0
  -18.1621  -46.6468  -11.2535 C   0  0  0  0  0  0  0  0  0  0  0  0
  -17.4500  -47.0541   -8.9311 C   0  0  0  0  0  0  0  0  0  0  0  0
  -16.9573  -47.8003   -8.0565 O   0  0  0  0  0  0  0  0  0  0  0  0
  -17.8764  -45.7132   -8.5181 C   0  0  0  0  0  0  0  0  0  0  0  0
  -18.8552  -45.5083   -7.5936 C   0  0  0  0  0  0  0  0  0  0  0  0
  -19.2847  -44.2187   -7.1704 C   0  0  0  0  0  0  0  0  0  0  0  0
  -18.6772  -43.1147   -7.7280 C   0  0  0  0  0  0  0  0  0  0  0  0
  -17.6791  -43.2511   -8.6705 C   0  0  0  0  0  0  0  0  0  0  0  0
  -17.3159  -44.5846   -9.0304 C   0  0  0  0  0  0  0  0  0  0  0  0
  -16.8834  -42.2621   -9.4088 C   0  0  0  0  0  0  0  0  0  0  0  0
  -15.6208  -42.6211   -9.6671 O   0  0  0  0  0  0  0  0  0  0  0  0
  -17.0882  -40.9862   -9.9481 N   0  0  0  0  0  0  0  0  0  0  0  0
  -17.5122  -39.7426   -9.2984 C   0  0  1  0  0  0  0  0  0  0  0  0
  -18.8560  -39.3425   -9.7957 C   0  0  0  0  0  0  0  0  0  0  0  0
  -19.8613  -38.9501   -8.7678 C   0  0  0  0  0  0  0  0  0  0  0  0
  -20.7397  -39.6978   -8.0410 C   0  0  0  0  0  0  0  0  0  0  0  0
  -21.5831  -39.0496   -7.1523 C   0  0  0  0  0  0  0  0  0  0  0  0
  -22.5399  -39.5633   -6.3217 O   0  0  0  0  0  0  0  0  0  0  0  0
  -23.1096  -40.5707   -5.6767 C   0  0  0  0  0  0  0  0  0  0  0  0
  -22.4561  -41.9393   -5.5892 C   0  0  0  0  0  0  0  0  0  0  0  0
  -21.3374  -42.3335   -5.1057 C   0  0  0  0  0  0  0  0  0  0  0  0
  -20.6324  -43.6676   -4.9855 C   0  0  0  0  0  0  0  0  0  0  0  0
  -20.3249  -44.3602   -6.2057 N   0  0  0  0  0  0  0  0  0  0  0  0
  -21.5102  -37.6391   -7.0231 C   0  0  0  0  0  0  0  0  0  0  0  0
  -22.3389  -36.9481   -6.1502 F   0  0  0  0  0  0  0  0  0  0  0  0
  -20.6390  -36.8577   -7.7372 C   0  0  0  0  0  0  0  0  0  0  0  0
  -19.8285  -37.5419   -8.6003 C   0  0  0  0  0  0  0  0  0  0  0  0
  -17.2031  -39.6419   -7.8613 C   0  0  2  0  0  0  0  0  0  0  0  0
  -18.2844  -39.0957   -7.1693 O   0  0  0  0  0  0  0  0  0  0  0  0
  -16.0497  -38.6135   -7.7463 C   0  0  0  0  0  0  0  0  0  0  0  0
  -14.7860  -39.2640   -7.7334 N   0  0  0  0  0  0  0  0  0  0  0  0
  -14.3669  -39.7745   -9.0197 C   0  0  0  0  0  0  0  0  0  0  0  0
  -14.7616  -41.2338   -9.2374 C   0  0  0  0  0  0  0  0  0  0  0  0
  -13.3165  -40.8251   -9.0480 C   0  0  0  0  0  0  0  0  0  0  0  0
  -14.3733  -38.8856  -10.1877 C   0  0  0  0  0  0  0  0  0  0  0  0
  -14.5552  -37.5184  -10.0746 C   0  0  0  0  0  0  0  0  0  0  0  0
  -14.5686  -36.6623  -11.1449 C   0  0  0  0  0  0  0  0  0  0  0  0
  -14.3908  -37.1947  -12.4024 C   0  0  0  0  0  0  0  0  0  0  0  0
  -14.2053  -38.5350  -12.5952 C   0  0  0  0  0  0  0  0  0  0  0  0
  -14.2006  -39.3656  -11.4640 C   0  0  0  0  0  0  0  0  0  0  0  0
  -14.7659  -35.2015  -10.9890 C   0  0  0  0  0  0  0  0  0  0  0  0
  -14.6450  -34.7634   -9.5510 C   0  0  0  0  0  0  0  0  0  0  0  0
  -13.6567  -34.5163  -11.7706 C   0  0  0  0  0  0  0  0  0  0  0  0
  -16.0774  -34.7269  -11.5858 C   0  0  0  0  0  0  0  0  0  0  0  0
  1  2  1  0
  2  3  1  0
  2  4  1  0
  4  5  2  0
  4  6  1  0
  6  7  2  0
  7  8  1  0
  8  9  2  0
  9 10  1  0
 10 11  2  0
 10 12  1  0
 12 13  2  0
 12 14  1  0
 14 15  1  0
 15 16  1  1
 16 17  1  0
 17 18  2  0
 18 19  1  0
 19 20  1  0
 20 21  1  0
 21 22  1  0
 22 23  2  0
 23 24  1  0
 24 25  1  0
 19 26  2  0
 26 27  1  0
 26 28  1  0
 28 29  2  0
 15 30  1  0
 30 31  1  1
 30 32  1  0
 32 33  1  0
 33 34  1  0
 34 35  1  0
 35 36  1  0
 34 37  1  0
 37 38  2  0
 38 39  1  0
 39 40  2  0
 40 41  1  0
 41 42  2  0
 39 43  1  0
 43 44  1  0
 43 45  1  0
 43 46  1  0
 11  6  1  0
 25  8  1  0
 29 17  1  0
 36 34  1  0
 42 37  1  0
M  END
$$$$
