
     RDKit          3D

 46 50  0  0  0  0  0  0  0  0999 V2000
  -21.7488  -47.3532   -8.3412 C   0  0  0  0  0  0  0  0  0  0  0  0
  -21.2230  -47.5178   -7.0025 N   0  0  0  0  0  0  0  0  0  0  0  0
  -21.3421  -48.7948   -6.3356 C   0  0  0  0  0  0  0  0  0  0  0  0
  -20.5963  -46.4474   -6.3420 C   0  0  0  0  0  0  0  0  0  0  0  0
  -19.9916  -46.6457   -5.2652 O   0  0  0  0  0  0  0  0  0  0  0  0
  -20.6186  -45.0781   -6.8662 C   0  0  0  0  0  0  0  0  0  0  0  0
  -21.3075  -44.0726   -6.2588 C   0  0  0  0  0  0  0  0  0  0  0  0
  -21.3418  -42.7341   -6.7425 C   0  0  0  0  0  0  0  0  0  0  0  0
  -20.6397  -42.4384   -7.8907 C   0  0  0  0  0  0  0  0  0  0  0  0
  -19.9212  -43.4102   -8.5561 C   0  0  0  0  0  0  0  0  0  0  0  0
  -19.9461  -44.7228   -7.9941 C   0  0  0  0  0  0  0  0  0  0  0  0
  -19.1039  -43.3656   -9.7752 C   0  0  0  0  0  0  0  0  0  0  0  0
  -18.0364  -44.1720   -9.7784 O   0  0  0  0  0  0  0  0  0  0  0  0
  -19.1330  -42.6836  -10.9978 N   0  0  0  0  0  0  0  0  0  0  0  0
  -19.1239  -41.2448  -11.2777 C   0  0  1  0  0  0  0  0  0  0  0  0
  -20.4210  -40.8366  -11.8811 C   0  0  0  0  0  0  0  0  0  0  0  0
  -21.0716  -39.6223  -11.3126 C   0  0  0  0  0  0  0  0  0  0  0  0
  -21.9171  -39.4702  -10.2538 C   0  0  0  0  0  0  0  0  0  0  0  0
  -22.3871  -38.1998   -9.9597 C   0  0  0  0  0  0  0  0  0  0  0  0
  -23.2334  -37.7885   -8.9678 O   0  0  0  0  0  0  0  0  0  0  0  0
  -23.8596  -37.9717   -7.8146 C   0  0  0  0  0  0  0  0  0  0  0  0
  -23.5203  -39.1305   -6.8929 C   0  0  0  0  0  0  0  0  0  0  0  0
  -22.4391  -39.4738   -6.2982 C   0  0  0  0  0  0  0  0  0  0  0  0
  -22.0362  -40.6033   -5.3744 C   0  0  0  0  0  0  0  0  0  0  0  0
  -22.1568  -41.9416   -5.8820 N   0  0  0  0  0  0  0  0  0  0  0  0
  -21.9795  -37.1021  -10.7599 C   0  0  0  0  0  0  0  0  0  0  0  0
  -22.4295  -35.8140  -10.5056 F   0  0  0  0  0  0  0  0  0  0  0  0
  -21.1308  -37.2194  -11.8302 C   0  0  0  0  0  0  0  0  0  0  0  0
  -20.6945  -38.4910  -12.0808 C   0  0  0  0  0  0  0  0  0  0  0  0
  -18.5004  -40.4025  -10.2421 C   0  0  2  0  0  0  0  0  0  0  0  0
  -18.7639  -39.0548  -10.4890 O   0  0  0  0  0  0  0  0  0  0  0  0
  -16.9709  -40.5840  -10.4113 C   0  0  0  0  0  0  0  0  0  0  0  0
  -16.6713  -41.8181  -11.0498 N   0  0  0  0  0  0  0  0  0  0  0  0
  -15.2600  -42.1253  -11.1174 C   0  0  0  0  0  0  0  0  0  0  0  0
  -14.7509  -42.2692  -12.5502 C   0  0  0  0  0  0  0  0  0  0  0  0
  -14.8578  -43.4627  -11.6251 C   0  0  0  0  0  0  0  0  0  0  0  0
  -14.3459  -41.5489  -10.1243 C   0  0  0  0  0  0  0  0  0  0  0  0
  -13.0355  -41.9740   -9.9919 C   0  0  0  0  0  0  0  0  0  0  0  0
  -12.1583  -41.4581   -9.0738 C   0  0  0  0  0  0  0  0  0  0  0  0
  -12.6080  -40.4608   -8.2375 C   0  0  0  0  0  0  0  0  0  0  0  0
  -13.8884  -39.9879   -8.3073 C   0  0  0  0  0  0  0  0  0  0  0  0
  -14.7443  -40.5521   -9.2659 C   0  0  0  0  0  0  0  0  0  0  0  0
  -10.7600  -41.9362   -8.9581 C   0  0  0  0  0  0  0  0  0  0  0  0
  -10.6096  -42.9970   -7.8967 C   0  0  0  0  0  0  0  0  0  0  0  0
  -10.3934  -42.5679  -10.2912 C   0  0  0  0  0  0  0  0  0  0  0  0
   -9.7775  -40.8035   -8.7272 C   0  0  0  0  0  0  0  0  0  0  0  0
  1  2  1  0
  2  3  1  0
  2  4  1  0
  4  5  2  0
  4  6  1  0
  6  7  2  0
  7  8  1  0
  8  9  2  0
  9 10  1  0
 10 11  2  0
 10 12  1  0
 12 13  2  0
 12 14  1  0
 14 15  1  0
 15 16  1  1
 16 17  1  0
 17 18  2  0
 18 19  1  0
 19 20  1  0
 20 21  1  0
 21 22  1  0
 22 23  2  0
 23 24  1  0
 24 25  1  0
 19 26  2  0
 26 27  1  0
 26 28  1  0
 28 29  2  0
 15 30  1  0
 30 31  1  6
 30 32  1  0
 32 33  1  0
 33 34  1  0
 34 35  1  0
 35 36  1  0
 34 37  1  0
 37 38  2  0
 38 39  1  0
 39 40  2  0
 40 41  1  0
 41 42  2  0
 39 43  1  0
 43 44  1  0
 43 45  1  0
 43 46  1  0
 11  6  1  0
 25  8  1  0
 29 17  1  0
 36 34  1  0
 42 37  1  0
M  END
$$$$
