
     RDKit          3D

 46 50  0  0  0  0  0  0  0  0999 V2000
  -17.1824  -46.8832   -7.4513 C   0  0  0  0  0  0  0  0  0  0  0  0
  -18.3853  -47.5982   -7.8222 N   0  0  0  0  0  0  0  0  0  0  0  0
  -18.3748  -49.0428   -7.8758 C   0  0  0  0  0  0  0  0  0  0  0  0
  -19.5661  -46.9023   -8.1316 C   0  0  0  0  0  0  0  0  0  0  0  0
  -20.5650  -47.5243   -8.5557 O   0  0  0  0  0  0  0  0  0  0  0  0
  -19.6858  -45.4488   -7.9783 C   0  0  0  0  0  0  0  0  0  0  0  0
  -20.5492  -44.8742   -7.0956 C   0  0  0  0  0  0  0  0  0  0  0  0
  -20.6818  -43.4674   -6.9224 C   0  0  0  0  0  0  0  0  0  0  0  0
  -19.8934  -42.6395   -7.6916 C   0  0  0  0  0  0  0  0  0  0  0  0
  -18.9981  -43.1558   -8.6055 C   0  0  0  0  0  0  0  0  0  0  0  0
  -18.9358  -44.5790   -8.7072 C   0  0  0  0  0  0  0  0  0  0  0  0
  -18.0593  -42.5115   -9.5327 C   0  0  0  0  0  0  0  0  0  0  0  0
  -16.9130  -43.1706   -9.7365 O   0  0  0  0  0  0  0  0  0  0  0  0
  -18.0286  -41.3437  -10.3046 N   0  0  0  0  0  0  0  0  0  0  0  0
  -18.1527  -39.9402   -9.9003 C   0  0  1  0  0  0  0  0  0  0  0  0
  -19.4118  -39.3644  -10.4447 C   0  0  0  0  0  0  0  0  0  0  0  0
  -20.2570  -38.5851   -9.4963 C   0  0  0  0  0  0  0  0  0  0  0  0
  -21.2280  -38.9825   -8.6256 C   0  0  0  0  0  0  0  0  0  0  0  0
  -21.8704  -38.0175   -7.8655 C   0  0  0  0  0  0  0  0  0  0  0  0
  -22.8644  -38.1546   -6.9369 O   0  0  0  0  0  0  0  0  0  0  0  0
  -23.5913  -38.8816   -6.1010 C   0  0  0  0  0  0  0  0  0  0  0  0
  -23.2275  -40.3169   -5.7614 C   0  0  0  0  0  0  0  0  0  0  0  0
  -22.1879  -40.8420   -5.2284 C   0  0  0  0  0  0  0  0  0  0  0  0
  -21.7649  -42.2491   -4.8641 C   0  0  0  0  0  0  0  0  0  0  0  0
  -21.6738  -43.2048   -5.9326 N   0  0  0  0  0  0  0  0  0  0  0  0
  -21.5036  -36.6554   -8.0118 C   0  0  0  0  0  0  0  0  0  0  0  0
  -22.1238  -35.6554   -7.2758 F   0  0  0  0  0  0  0  0  0  0  0  0
  -20.5321  -36.2218   -8.8765 C   0  0  0  0  0  0  0  0  0  0  0  0
  -19.9278  -37.2095   -9.6039 C   0  0  0  0  0  0  0  0  0  0  0  0
  -17.7502  -39.6427   -8.5146 C   0  0  2  0  0  0  0  0  0  0  0  0
  -17.7960  -38.2681   -8.2803 O   0  0  0  0  0  0  0  0  0  0  0  0
  -16.2595  -40.0519   -8.4084 C   0  0  0  0  0  0  0  0  0  0  0  0
  -16.0505  -41.3572   -8.9307 N   0  0  0  0  0  0  0  0  0  0  0  0
  -15.2207  -41.3982  -10.1142 C   0  0  0  0  0  0  0  0  0  0  0  0
  -15.4043  -42.6796  -10.9248 C   0  0  0  0  0  0  0  0  0  0  0  0
  -14.1243  -42.3998  -10.1667 C   0  0  0  0  0  0  0  0  0  0  0  0
  -14.9510  -40.1583  -10.8518 C   0  0  0  0  0  0  0  0  0  0  0  0
  -15.4691  -38.9369  -10.4581 C   0  0  0  0  0  0  0  0  0  0  0  0
  -15.2381  -37.7625  -11.1260 C   0  0  0  0  0  0  0  0  0  0  0  0
  -14.4457  -37.8025  -12.2515 C   0  0  0  0  0  0  0  0  0  0  0  0
  -13.8980  -38.9704  -12.7031 C   0  0  0  0  0  0  0  0  0  0  0  0
  -14.1673  -40.1432  -11.9809 C   0  0  0  0  0  0  0  0  0  0  0  0
  -15.8085  -36.4701  -10.6772 C   0  0  0  0  0  0  0  0  0  0  0  0
  -16.2291  -36.5083   -9.2295 C   0  0  0  0  0  0  0  0  0  0  0  0
  -14.7086  -35.4288  -10.8065 C   0  0  0  0  0  0  0  0  0  0  0  0
  -16.9543  -36.0058  -11.5565 C   0  0  0  0  0  0  0  0  0  0  0  0
  1  2  1  0
  2  3  1  0
  2  4  1  0
  4  5  2  0
  4  6  1  0
  6  7  2  0
  7  8  1  0
  8  9  2  0
  9 10  1  0
 10 11  2  0
 10 12  1  0
 12 13  2  0
 12 14  1  0
 14 15  1  0
 15 16  1  1
 16 17  1  0
 17 18  2  0
 18 19  1  0
 19 20  1  0
 20 21  1  0
 21 22  1  0
 22 23  2  0
 23 24  1  0
 24 25  1  0
 19 26  2  0
 26 27  1  0
 26 28  1  0
 28 29  2  0
 15 30  1  0
 30 31  1  6
 30 32  1  0
 32 33  1  0
 33 34  1  0
 34 35  1  0
 35 36  1  0
 34 37  1  0
 37 38  2  0
 38 39  1  0
 39 40  2  0
 40 41  1  0
 41 42  2  0
 39 43  1  0
 43 44  1  0
 43 45  1  0
 43 46  1  0
 11  6  1  0
 25  8  1  0
 29 17  1  0
 36 34  1  0
 42 37  1  0
M  END
$$$$
