
     RDKit          3D

 46 50  0  0  0  0  0  0  0  0999 V2000
  -20.9560  -42.9685   -2.2939 C   0  0  0  0  0  0  0  0  0  0  0  0
  -20.5341  -42.1650   -3.4218 N   0  0  0  0  0  0  0  0  0  0  0  0
  -21.3328  -41.0339   -3.8370 C   0  0  0  0  0  0  0  0  0  0  0  0
  -19.3539  -42.4729   -4.1196 C   0  0  0  0  0  0  0  0  0  0  0  0
  -18.6510  -43.4432   -3.7606 O   0  0  0  0  0  0  0  0  0  0  0  0
  -18.8964  -41.6930   -5.2740 C   0  0  0  0  0  0  0  0  0  0  0  0
  -17.7326  -40.9858   -5.2652 C   0  0  0  0  0  0  0  0  0  0  0  0
  -17.2620  -40.2252   -6.3729 C   0  0  0  0  0  0  0  0  0  0  0  0
  -18.0271  -40.2017   -7.5186 C   0  0  0  0  0  0  0  0  0  0  0  0
  -19.2171  -40.8955   -7.5947 C   0  0  0  0  0  0  0  0  0  0  0  0
  -19.6055  -41.6302   -6.4332 C   0  0  0  0  0  0  0  0  0  0  0  0
  -20.2052  -41.0359   -8.6718 C   0  0  0  0  0  0  0  0  0  0  0  0
  -20.8115  -42.2265   -8.7407 O   0  0  0  0  0  0  0  0  0  0  0  0
  -20.7185  -40.2305   -9.6958 N   0  0  0  0  0  0  0  0  0  0  0  0
  -20.0314  -39.5511  -10.7979 C   0  0  1  0  0  0  0  0  0  0  0  0
  -20.1231  -38.0767  -10.6215 C   0  0  0  0  0  0  0  0  0  0  0  0
  -18.8617  -37.3017  -10.7928 C   0  0  0  0  0  0  0  0  0  0  0  0
  -17.8713  -36.9934   -9.9079 C   0  0  0  0  0  0  0  0  0  0  0  0
  -16.8030  -36.2291  -10.3506 C   0  0  0  0  0  0  0  0  0  0  0  0
  -15.7013  -35.7894   -9.6708 O   0  0  0  0  0  0  0  0  0  0  0  0
  -14.8687  -35.8325   -8.6410 C   0  0  0  0  0  0  0  0  0  0  0  0
  -14.9156  -36.9544   -7.6179 C   0  0  0  0  0  0  0  0  0  0  0  0
  -14.7702  -38.2229   -7.7191 C   0  0  0  0  0  0  0  0  0  0  0  0
  -14.8030  -39.3861   -6.7508 C   0  0  0  0  0  0  0  0  0  0  0  0
  -16.0251  -39.6052   -6.0287 N   0  0  0  0  0  0  0  0  0  0  0  0
  -16.7684  -35.7927  -11.6996 C   0  0  0  0  0  0  0  0  0  0  0  0
  -15.7216  -35.0211  -12.1845 F   0  0  0  0  0  0  0  0  0  0  0  0
  -17.7461  -36.0852  -12.6150 C   0  0  0  0  0  0  0  0  0  0  0  0
  -18.7784  -36.8405  -12.1316 C   0  0  0  0  0  0  0  0  0  0  0  0
  -18.7586  -40.1603  -11.2219 C   0  0  2  0  0  0  0  0  0  0  0  0
  -18.1652  -39.3954  -12.2266 O   0  0  0  0  0  0  0  0  0  0  0  0
  -19.1328  -41.5161  -11.8720 C   0  0  0  0  0  0  0  0  0  0  0  0
  -20.4600  -41.4891  -12.3801 N   0  0  0  0  0  0  0  0  0  0  0  0
  -21.2341  -42.6740  -12.0843 C   0  0  0  0  0  0  0  0  0  0  0  0
  -20.4605  -43.6982  -11.2566 C   0  0  0  0  0  0  0  0  0  0  0  0
  -20.8154  -43.9574  -12.7051 C   0  0  0  0  0  0  0  0  0  0  0  0
  -22.6771  -42.5539  -11.8441 C   0  0  0  0  0  0  0  0  0  0  0  0
  -23.4275  -43.5917  -11.3195 C   0  0  0  0  0  0  0  0  0  0  0  0
  -24.7757  -43.5121  -11.0857 C   0  0  0  0  0  0  0  0  0  0  0  0
  -25.4174  -42.3324  -11.3905 C   0  0  0  0  0  0  0  0  0  0  0  0
  -24.7449  -41.2628  -11.9115 C   0  0  0  0  0  0  0  0  0  0  0  0
  -23.3654  -41.3993  -12.1308 C   0  0  0  0  0  0  0  0  0  0  0  0
  -25.5505  -44.6432  -10.5222 C   0  0  0  0  0  0  0  0  0  0  0  0
  -24.6665  -45.6389   -9.8141 C   0  0  0  0  0  0  0  0  0  0  0  0
  -26.5018  -44.0608   -9.4895 C   0  0  0  0  0  0  0  0  0  0  0  0
  -26.4086  -45.3344  -11.5650 C   0  0  0  0  0  0  0  0  0  0  0  0
  1  2  1  0
  2  3  1  0
  2  4  1  0
  4  5  2  0
  4  6  1  0
  6  7  2  0
  7  8  1  0
  8  9  2  0
  9 10  1  0
 10 11  2  0
 10 12  1  0
 12 13  2  0
 12 14  1  0
 14 15  1  0
 15 16  1  1
 16 17  1  0
 17 18  2  0
 18 19  1  0
 19 20  1  0
 20 21  1  0
 21 22  1  0
 22 23  2  0
 23 24  1  0
 24 25  1  0
 19 26  2  0
 26 27  1  0
 26 28  1  0
 28 29  2  0
 15 30  1  0
 30 31  1  6
 30 32  1  0
 32 33  1  0
 33 34  1  0
 34 35  1  0
 35 36  1  0
 34 37  1  0
 37 38  2  0
 38 39  1  0
 39 40  2  0
 40 41  1  0
 41 42  2  0
 39 43  1  0
 43 44  1  0
 43 45  1  0
 43 46  1  0
 11  6  1  0
 25  8  1  0
 29 17  1  0
 36 34  1  0
 42 37  1  0
M  END
$$$$
