
     RDKit          3D

 46 50  0  0  0  0  0  0  0  0999 V2000
  -13.7327  -45.2533  -13.4247 C   0  0  0  0  0  0  0  0  0  0  0  0
  -14.4137  -44.6658  -12.2903 N   0  0  0  0  0  0  0  0  0  0  0  0
  -13.7198  -44.5248  -11.0299 C   0  0  0  0  0  0  0  0  0  0  0  0
  -15.7449  -44.2298  -12.4005 C   0  0  0  0  0  0  0  0  0  0  0  0
  -16.3927  -44.4587  -13.4457 O   0  0  0  0  0  0  0  0  0  0  0  0
  -16.4261  -43.5023  -11.3249 C   0  0  0  0  0  0  0  0  0  0  0  0
  -17.3858  -44.0752  -10.5468 C   0  0  0  0  0  0  0  0  0  0  0  0
  -18.0588  -43.3945   -9.4930 C   0  0  0  0  0  0  0  0  0  0  0  0
  -17.7217  -42.0814   -9.2463 C   0  0  0  0  0  0  0  0  0  0  0  0
  -16.7583  -41.4403   -9.9974 C   0  0  0  0  0  0  0  0  0  0  0  0
  -16.1381  -42.2055  -11.0316 C   0  0  0  0  0  0  0  0  0  0  0  0
  -16.2209  -40.0747   -9.9468 C   0  0  0  0  0  0  0  0  0  0  0  0
  -14.9231  -39.9587  -10.2506 O   0  0  0  0  0  0  0  0  0  0  0  0
  -16.7125  -38.7956   -9.6586 N   0  0  0  0  0  0  0  0  0  0  0  0
  -17.3608  -38.2831   -8.4480 C   0  0  1  0  0  0  0  0  0  0  0  0
  -18.7786  -37.9387   -8.7383 C   0  0  0  0  0  0  0  0  0  0  0  0
  -19.7992  -38.4303   -7.7699 C   0  0  0  0  0  0  0  0  0  0  0  0
  -20.4688  -39.6157   -7.6969 C   0  0  0  0  0  0  0  0  0  0  0  0
  -21.3911  -39.7930   -6.6774 C   0  0  0  0  0  0  0  0  0  0  0  0
  -22.1820  -40.8709   -6.3915 O   0  0  0  0  0  0  0  0  0  0  0  0
  -22.4988  -42.1522   -6.5078 C   0  0  0  0  0  0  0  0  0  0  0  0
  -21.5687  -43.1512   -7.1746 C   0  0  0  0  0  0  0  0  0  0  0  0
  -20.3725  -43.5266   -6.9123 C   0  0  0  0  0  0  0  0  0  0  0  0
  -19.3979  -44.5077   -7.5280 C   0  0  0  0  0  0  0  0  0  0  0  0
  -19.0037  -44.2751   -8.8895 N   0  0  0  0  0  0  0  0  0  0  0  0
  -21.6114  -38.7467   -5.7457 C   0  0  0  0  0  0  0  0  0  0  0  0
  -22.5291  -38.8782   -4.7128 F   0  0  0  0  0  0  0  0  0  0  0  0
  -20.9555  -37.5437   -5.7894 C   0  0  0  0  0  0  0  0  0  0  0  0
  -20.0566  -37.4162   -6.8120 C   0  0  0  0  0  0  0  0  0  0  0  0
  -17.0189  -38.9878   -7.2001 C   0  0  2  0  0  0  0  0  0  0  0  0
  -17.5327  -38.3022   -6.0990 O   0  0  0  0  0  0  0  0  0  0  0  0
  -15.4761  -38.9110   -7.0783 C   0  0  0  0  0  0  0  0  0  0  0  0
  -14.8889  -40.1981   -7.2159 N   0  0  0  0  0  0  0  0  0  0  0  0
  -13.9456  -40.3077   -8.3063 C   0  0  0  0  0  0  0  0  0  0  0  0
  -13.0168  -41.5125   -8.1700 C   0  0  0  0  0  0  0  0  0  0  0  0
  -12.5048  -40.0970   -8.0100 C   0  0  0  0  0  0  0  0  0  0  0  0
  -14.3549  -39.9129   -9.6594 C   0  0  0  0  0  0  0  0  0  0  0  0
  -15.2004  -38.8424   -9.8925 C   0  0  0  0  0  0  0  0  0  0  0  0
  -15.6029  -38.4500  -11.1426 C   0  0  0  0  0  0  0  0  0  0  0  0
  -15.1386  -39.1623  -12.2258 C   0  0  0  0  0  0  0  0  0  0  0  0
  -14.3007  -40.2317  -12.0765 C   0  0  0  0  0  0  0  0  0  0  0  0
  -13.9206  -40.5899  -10.7739 C   0  0  0  0  0  0  0  0  0  0  0  0
  -16.5100  -37.2976  -11.3579 C   0  0  0  0  0  0  0  0  0  0  0  0
  -17.9606  -37.6827  -11.2101 C   0  0  0  0  0  0  0  0  0  0  0  0
  -16.1958  -36.2756  -10.2774 C   0  0  0  0  0  0  0  0  0  0  0  0
  -16.2701  -36.6122  -12.6898 C   0  0  0  0  0  0  0  0  0  0  0  0
  1  2  1  0
  2  3  1  0
  2  4  1  0
  4  5  2  0
  4  6  1  0
  6  7  2  0
  7  8  1  0
  8  9  2  0
  9 10  1  0
 10 11  2  0
 10 12  1  0
 12 13  2  0
 12 14  1  0
 14 15  1  0
 15 16  1  6
 16 17  1  0
 17 18  2  0
 18 19  1  0
 19 20  1  0
 20 21  1  0
 21 22  1  0
 22 23  2  0
 23 24  1  0
 24 25  1  0
 19 26  2  0
 26 27  1  0
 26 28  1  0
 28 29  2  0
 15 30  1  0
 30 31  1  1
 30 32  1  0
 32 33  1  0
 33 34  1  0
 34 35  1  0
 35 36  1  0
 34 37  1  0
 37 38  2  0
 38 39  1  0
 39 40  2  0
 40 41  1  0
 41 42  2  0
 39 43  1  0
 43 44  1  0
 43 45  1  0
 43 46  1  0
 11  6  1  0
 25  8  1  0
 29 17  1  0
 36 34  1  0
 42 37  1  0
M  END
$$$$
