
     RDKit          3D

 46 50  0  0  0  0  0  0  0  0999 V2000
  -24.6165  -42.2660   -4.1516 C   0  0  0  0  0  0  0  0  0  0  0  0
  -23.6455  -41.5730   -4.9718 N   0  0  0  0  0  0  0  0  0  0  0  0
  -24.0938  -40.6660   -6.0043 C   0  0  0  0  0  0  0  0  0  0  0  0
  -22.2686  -41.7725   -4.7753 C   0  0  0  0  0  0  0  0  0  0  0  0
  -21.8720  -42.5770   -3.9035 O   0  0  0  0  0  0  0  0  0  0  0  0
  -21.2514  -41.0661   -5.5605 C   0  0  0  0  0  0  0  0  0  0  0  0
  -20.5733  -39.9875   -5.0794 C   0  0  0  0  0  0  0  0  0  0  0  0
  -19.5777  -39.2868   -5.8174 C   0  0  0  0  0  0  0  0  0  0  0  0
  -19.2836  -39.7230   -7.0909 C   0  0  0  0  0  0  0  0  0  0  0  0
  -19.9336  -40.8093   -7.6394 C   0  0  0  0  0  0  0  0  0  0  0  0
  -20.9157  -41.4477   -6.8224 C   0  0  0  0  0  0  0  0  0  0  0  0
  -19.8154  -41.4674   -8.9468 C   0  0  0  0  0  0  0  0  0  0  0  0
  -19.9959  -42.7930   -8.9386 O   0  0  0  0  0  0  0  0  0  0  0  0
  -19.5574  -41.0753  -10.2660 N   0  0  0  0  0  0  0  0  0  0  0  0
  -18.4056  -40.3683  -10.8335 C   0  0  1  0  0  0  0  0  0  0  0  0
  -18.8217  -39.0232  -11.3139 C   0  0  0  0  0  0  0  0  0  0  0  0
  -17.9587  -37.8742  -10.9188 C   0  0  0  0  0  0  0  0  0  0  0  0
  -17.9637  -37.0908   -9.8030 C   0  0  0  0  0  0  0  0  0  0  0  0
  -17.0367  -36.0643   -9.7111 C   0  0  0  0  0  0  0  0  0  0  0  0
  -16.8395  -35.1509   -8.7131 O   0  0  0  0  0  0  0  0  0  0  0  0
  -17.0015  -34.7256   -7.4687 C   0  0  0  0  0  0  0  0  0  0  0  0
  -17.5921  -35.6145   -6.3877 C   0  0  0  0  0  0  0  0  0  0  0  0
  -17.2249  -36.7395   -5.8978 C   0  0  0  0  0  0  0  0  0  0  0  0
  -17.7602  -37.6695   -4.8300 C   0  0  0  0  0  0  0  0  0  0  0  0
  -19.0761  -38.2098   -5.0292 N   0  0  0  0  0  0  0  0  0  0  0  0
  -16.1158  -35.8586  -10.7698 C   0  0  0  0  0  0  0  0  0  0  0  0
  -15.1743  -34.8398  -10.7230 F   0  0  0  0  0  0  0  0  0  0  0  0
  -16.0827  -36.6275  -11.9044 C   0  0  0  0  0  0  0  0  0  0  0  0
  -17.0157  -37.6262  -11.9491 C   0  0  0  0  0  0  0  0  0  0  0  0
  -17.1407  -40.5231  -10.0941 C   0  0  2  0  0  0  0  0  0  0  0  0
  -16.1470  -39.7231  -10.6591 O   0  0  0  0  0  0  0  0  0  0  0  0
  -16.6956  -41.9905  -10.3167 C   0  0  0  0  0  0  0  0  0  0  0  0
  -17.6805  -42.7182  -11.0383 N   0  0  0  0  0  0  0  0  0  0  0  0
  -18.0088  -44.0042  -10.4644 C   0  0  0  0  0  0  0  0  0  0  0  0
  -17.0147  -44.4484   -9.3933 C   0  0  0  0  0  0  0  0  0  0  0  0
  -17.0963  -45.1454  -10.7345 C   0  0  0  0  0  0  0  0  0  0  0  0
  -19.4167  -44.3775  -10.2838 C   0  0  0  0  0  0  0  0  0  0  0  0
  -20.4466  -43.4629  -10.4181 C   0  0  0  0  0  0  0  0  0  0  0  0
  -21.7701  -43.7791  -10.2538 C   0  0  0  0  0  0  0  0  0  0  0  0
  -22.0907  -45.0804   -9.9374 C   0  0  0  0  0  0  0  0  0  0  0  0
  -21.1299  -46.0407   -9.7878 C   0  0  0  0  0  0  0  0  0  0  0  0
  -19.7906  -45.6618   -9.9673 C   0  0  0  0  0  0  0  0  0  0  0  0
  -22.8496  -42.7746  -10.4051 C   0  0  0  0  0  0  0  0  0  0  0  0
  -22.9161  -42.2206  -11.8062 C   0  0  0  0  0  0  0  0  0  0  0  0
  -24.1637  -43.4886  -10.1329 C   0  0  0  0  0  0  0  0  0  0  0  0
  -22.7440  -41.6529   -9.3892 C   0  0  0  0  0  0  0  0  0  0  0  0
  1  2  1  0
  2  3  1  0
  2  4  1  0
  4  5  2  0
  4  6  1  0
  6  7  2  0
  7  8  1  0
  8  9  2  0
  9 10  1  0
 10 11  2  0
 10 12  1  0
 12 13  2  0
 12 14  1  0
 14 15  1  0
 15 16  1  1
 16 17  1  0
 17 18  2  0
 18 19  1  0
 19 20  1  0
 20 21  1  0
 21 22  1  0
 22 23  2  0
 23 24  1  0
 24 25  1  0
 19 26  2  0
 26 27  1  0
 26 28  1  0
 28 29  2  0
 15 30  1  0
 30 31  1  6
 30 32  1  0
 32 33  1  0
 33 34  1  0
 34 35  1  0
 35 36  1  0
 34 37  1  0
 37 38  2  0
 38 39  1  0
 39 40  2  0
 40 41  1  0
 41 42  2  0
 39 43  1  0
 43 44  1  0
 43 45  1  0
 43 46  1  0
 11  6  1  0
 25  8  1  0
 29 17  1  0
 36 34  1  0
 42 37  1  0
M  END
$$$$
