
     RDKit          3D

 46 50  0  0  0  0  0  0  0  0999 V2000
  -15.4816  -46.1752   -9.1077 C   0  0  0  0  0  0  0  0  0  0  0  0
  -16.4834  -47.1640   -9.4462 N   0  0  0  0  0  0  0  0  0  0  0  0
  -16.0803  -48.4275  -10.0215 C   0  0  0  0  0  0  0  0  0  0  0  0
  -17.8467  -46.9090   -9.2213 C   0  0  0  0  0  0  0  0  0  0  0  0
  -18.6960  -47.7951   -9.4621 O   0  0  0  0  0  0  0  0  0  0  0  0
  -18.3325  -45.6246   -8.7069 C   0  0  0  0  0  0  0  0  0  0  0  0
  -19.1341  -45.5309   -7.6100 C   0  0  0  0  0  0  0  0  0  0  0  0
  -19.6152  -44.2977   -7.0861 C   0  0  0  0  0  0  0  0  0  0  0  0
  -19.2507  -43.1325   -7.7250 C   0  0  0  0  0  0  0  0  0  0  0  0
  -18.4412  -43.1559   -8.8419 C   0  0  0  0  0  0  0  0  0  0  0  0
  -18.0079  -44.4401   -9.2920 C   0  0  0  0  0  0  0  0  0  0  0  0
  -17.9148  -42.0839   -9.6962 C   0  0  0  0  0  0  0  0  0  0  0  0
  -16.6925  -42.2984  -10.1960 O   0  0  0  0  0  0  0  0  0  0  0  0
  -18.3582  -40.8393  -10.1600 N   0  0  0  0  0  0  0  0  0  0  0  0
  -18.7858  -39.6511   -9.4157 C   0  0  1  0  0  0  0  0  0  0  0  0
  -20.2355  -39.4050   -9.6415 C   0  0  0  0  0  0  0  0  0  0  0  0
  -21.0641  -39.1280   -8.4340 C   0  0  0  0  0  0  0  0  0  0  0  0
  -21.7001  -39.9696   -7.5703 C   0  0  0  0  0  0  0  0  0  0  0  0
  -22.4255  -39.4202   -6.5247 C   0  0  0  0  0  0  0  0  0  0  0  0
  -23.1440  -40.0382   -5.5393 O   0  0  0  0  0  0  0  0  0  0  0  0
  -23.4657  -41.1031   -4.8196 C   0  0  0  0  0  0  0  0  0  0  0  0
  -22.6602  -42.3894   -4.8861 C   0  0  0  0  0  0  0  0  0  0  0  0
  -21.4334  -42.6550   -4.6313 C   0  0  0  0  0  0  0  0  0  0  0  0
  -20.5753  -43.9012   -4.6747 C   0  0  0  0  0  0  0  0  0  0  0  0
  -20.4308  -44.5552   -5.9454 N   0  0  0  0  0  0  0  0  0  0  0  0
  -22.4858  -38.0105   -6.3819 C   0  0  0  0  0  0  0  0  0  0  0  0
  -23.2046  -37.4168   -5.3537 F   0  0  0  0  0  0  0  0  0  0  0  0
  -21.8581  -37.1361   -7.2311 C   0  0  0  0  0  0  0  0  0  0  0  0
  -21.1560  -37.7250   -8.2460 C   0  0  0  0  0  0  0  0  0  0  0  0
  -18.2221  -39.5158   -8.0612 C   0  0  2  0  0  0  0  0  0  0  0  0
  -18.7461  -38.3886   -7.4277 O   0  0  0  0  0  0  0  0  0  0  0  0
  -16.7098  -39.2406   -8.2563 C   0  0  0  0  0  0  0  0  0  0  0  0
  -15.9576  -40.4438   -8.1732 N   0  0  0  0  0  0  0  0  0  0  0  0
  -14.6203  -40.3475   -8.7146 C   0  0  0  0  0  0  0  0  0  0  0  0
  -13.8187  -41.6374   -8.5517 C   0  0  0  0  0  0  0  0  0  0  0  0
  -13.4763  -40.3890   -7.7671 C   0  0  0  0  0  0  0  0  0  0  0  0
  -14.3846  -39.5470   -9.9220 C   0  0  0  0  0  0  0  0  0  0  0  0
  -13.2917  -38.7077  -10.0502 C   0  0  0  0  0  0  0  0  0  0  0  0
  -13.0448  -37.9460  -11.1626 C   0  0  0  0  0  0  0  0  0  0  0  0
  -13.9354  -38.0217  -12.2102 C   0  0  0  0  0  0  0  0  0  0  0  0
  -15.0381  -38.8274  -12.1586 C   0  0  0  0  0  0  0  0  0  0  0  0
  -15.2422  -39.5856  -10.9954 C   0  0  0  0  0  0  0  0  0  0  0  0
  -11.8636  -37.0567  -11.2680 C   0  0  0  0  0  0  0  0  0  0  0  0
  -10.5753  -37.8344  -11.3658 C   0  0  0  0  0  0  0  0  0  0  0  0
  -12.0172  -36.2627  -12.5551 C   0  0  0  0  0  0  0  0  0  0  0  0
  -11.7960  -36.0467  -10.1379 C   0  0  0  0  0  0  0  0  0  0  0  0
  1  2  1  0
  2  3  1  0
  2  4  1  0
  4  5  2  0
  4  6  1  0
  6  7  2  0
  7  8  1  0
  8  9  2  0
  9 10  1  0
 10 11  2  0
 10 12  1  0
 12 13  2  0
 12 14  1  0
 14 15  1  0
 15 16  1  1
 16 17  1  0
 17 18  2  0
 18 19  1  0
 19 20  1  0
 20 21  1  0
 21 22  1  0
 22 23  2  0
 23 24  1  0
 24 25  1  0
 19 26  2  0
 26 27  1  0
 26 28  1  0
 28 29  2  0
 15 30  1  0
 30 31  1  6
 30 32  1  0
 32 33  1  0
 33 34  1  0
 34 35  1  0
 35 36  1  0
 34 37  1  0
 37 38  2  0
 38 39  1  0
 39 40  2  0
 40 41  1  0
 41 42  2  0
 39 43  1  0
 43 44  1  0
 43 45  1  0
 43 46  1  0
 11  6  1  0
 25  8  1  0
 29 17  1  0
 36 34  1  0
 42 37  1  0
M  END
$$$$
