
     RDKit          3D

 46 50  0  0  0  0  0  0  0  0999 V2000
  -17.0971  -47.1212   -6.7180 C   0  0  0  0  0  0  0  0  0  0  0  0
  -17.9090  -47.6565   -7.7905 N   0  0  0  0  0  0  0  0  0  0  0  0
  -17.5619  -48.9254   -8.3898 C   0  0  0  0  0  0  0  0  0  0  0  0
  -19.0336  -46.9548   -8.2567 C   0  0  0  0  0  0  0  0  0  0  0  0
  -19.8942  -47.5427   -8.9482 O   0  0  0  0  0  0  0  0  0  0  0  0
  -19.2509  -45.5341   -7.9655 C   0  0  0  0  0  0  0  0  0  0  0  0
  -20.1013  -45.1082   -6.9908 C   0  0  0  0  0  0  0  0  0  0  0  0
  -20.3268  -43.7365   -6.6833 C   0  0  0  0  0  0  0  0  0  0  0  0
  -19.6478  -42.7854   -7.4134 C   0  0  0  0  0  0  0  0  0  0  0  0
  -18.7718  -43.1483   -8.4155 C   0  0  0  0  0  0  0  0  0  0  0  0
  -18.6108  -44.5479   -8.6497 C   0  0  0  0  0  0  0  0  0  0  0  0
  -17.9388  -42.3540   -9.3273 C   0  0  0  0  0  0  0  0  0  0  0  0
  -16.7609  -42.9007   -9.6491 O   0  0  0  0  0  0  0  0  0  0  0  0
  -18.0393  -41.1246   -9.9900 N   0  0  0  0  0  0  0  0  0  0  0  0
  -18.2427  -39.7758   -9.4535 C   0  0  1  0  0  0  0  0  0  0  0  0
  -19.5704  -39.2555   -9.8773 C   0  0  0  0  0  0  0  0  0  0  0  0
  -20.4139  -38.6306   -8.8195 C   0  0  0  0  0  0  0  0  0  0  0  0
  -21.3005  -39.1773   -7.9398 C   0  0  0  0  0  0  0  0  0  0  0  0
  -21.9668  -38.3357   -7.0628 C   0  0  0  0  0  0  0  0  0  0  0  0
  -22.8920  -38.6308   -6.1005 O   0  0  0  0  0  0  0  0  0  0  0  0
  -23.5134  -39.4826   -5.2981 C   0  0  0  0  0  0  0  0  0  0  0  0
  -23.0256  -40.9090   -5.1101 C   0  0  0  0  0  0  0  0  0  0  0  0
  -21.9208  -41.3951   -4.6814 C   0  0  0  0  0  0  0  0  0  0  0  0
  -21.3748  -42.7909   -4.4694 C   0  0  0  0  0  0  0  0  0  0  0  0
  -21.2760  -43.6399   -5.6238 N   0  0  0  0  0  0  0  0  0  0  0  0
  -21.7106  -36.9414   -7.1029 C   0  0  0  0  0  0  0  0  0  0  0  0
  -22.3587  -36.0611   -6.2477 F   0  0  0  0  0  0  0  0  0  0  0  0
  -20.8258  -36.3591   -7.9733 C   0  0  0  0  0  0  0  0  0  0  0  0
  -20.1938  -37.2292   -8.8180 C   0  0  0  0  0  0  0  0  0  0  0  0
  -17.7830  -39.5692   -8.0690 C   0  0  2  0  0  0  0  0  0  0  0  0
  -18.1077  -38.2832   -7.6364 O   0  0  0  0  0  0  0  0  0  0  0  0
  -16.2357  -39.6319   -8.1216 C   0  0  0  0  0  0  0  0  0  0  0  0
  -15.7888  -40.1684   -9.3597 N   0  0  0  0  0  0  0  0  0  0  0  0
  -14.3716  -40.0104   -9.5992 C   0  0  0  0  0  0  0  0  0  0  0  0
  -13.6184  -41.3391   -9.6077 C   0  0  0  0  0  0  0  0  0  0  0  0
  -13.4339  -40.3325   -8.4924 C   0  0  0  0  0  0  0  0  0  0  0  0
  -13.9046  -38.9569  -10.5082 C   0  0  0  0  0  0  0  0  0  0  0  0
  -12.7036  -39.0481  -11.1898 C   0  0  0  0  0  0  0  0  0  0  0  0
  -12.2387  -38.0815  -12.0431 C   0  0  0  0  0  0  0  0  0  0  0  0
  -13.0117  -36.9575  -12.2313 C   0  0  0  0  0  0  0  0  0  0  0  0
  -14.2095  -36.7945  -11.5938 C   0  0  0  0  0  0  0  0  0  0  0  0
  -14.6373  -37.8155  -10.7311 C   0  0  0  0  0  0  0  0  0  0  0  0
  -10.9469  -38.2104  -12.7583 C   0  0  0  0  0  0  0  0  0  0  0  0
  -11.0791  -37.8997  -14.2281 C   0  0  0  0  0  0  0  0  0  0  0  0
  -10.0005  -37.1839  -12.1573 C   0  0  0  0  0  0  0  0  0  0  0  0
  -10.3040  -39.5692  -12.5532 C   0  0  0  0  0  0  0  0  0  0  0  0
  1  2  1  0
  2  3  1  0
  2  4  1  0
  4  5  2  0
  4  6  1  0
  6  7  2  0
  7  8  1  0
  8  9  2  0
  9 10  1  0
 10 11  2  0
 10 12  1  0
 12 13  2  0
 12 14  1  0
 14 15  1  0
 15 16  1  1
 16 17  1  0
 17 18  2  0
 18 19  1  0
 19 20  1  0
 20 21  1  0
 21 22  1  0
 22 23  2  0
 23 24  1  0
 24 25  1  0
 19 26  2  0
 26 27  1  0
 26 28  1  0
 28 29  2  0
 15 30  1  0
 30 31  1  6
 30 32  1  0
 32 33  1  0
 33 34  1  0
 34 35  1  0
 35 36  1  0
 34 37  1  0
 37 38  2  0
 38 39  1  0
 39 40  2  0
 40 41  1  0
 41 42  2  0
 39 43  1  0
 43 44  1  0
 43 45  1  0
 43 46  1  0
 11  6  1  0
 25  8  1  0
 29 17  1  0
 36 34  1  0
 42 37  1  0
M  END
$$$$
