
     RDKit          3D

 46 50  0  0  0  0  0  0  0  0999 V2000
  -20.8505  -46.2304   -9.6834 C   0  0  0  0  0  0  0  0  0  0  0  0
  -20.1254  -44.9963   -9.8998 N   0  0  0  0  0  0  0  0  0  0  0  0
  -20.8508  -43.7595  -10.0842 C   0  0  0  0  0  0  0  0  0  0  0  0
  -18.7206  -44.9868   -9.9327 C   0  0  0  0  0  0  0  0  0  0  0  0
  -18.0861  -46.0600   -9.8331 O   0  0  0  0  0  0  0  0  0  0  0  0
  -17.9456  -43.7508  -10.0809 C   0  0  0  0  0  0  0  0  0  0  0  0
  -17.6339  -43.2232  -11.2971 C   0  0  0  0  0  0  0  0  0  0  0  0
  -16.8882  -42.0228  -11.4698 C   0  0  0  0  0  0  0  0  0  0  0  0
  -16.4560  -41.3570  -10.3434 C   0  0  0  0  0  0  0  0  0  0  0  0
  -16.7366  -41.8370   -9.0808 C   0  0  0  0  0  0  0  0  0  0  0  0
  -17.4912  -43.0474   -9.0088 C   0  0  0  0  0  0  0  0  0  0  0  0
  -16.4018  -41.3348   -7.7422 C   0  0  0  0  0  0  0  0  0  0  0  0
  -17.3272  -41.5530   -6.8010 O   0  0  0  0  0  0  0  0  0  0  0  0
  -15.3295  -40.6610   -7.1448 N   0  0  0  0  0  0  0  0  0  0  0  0
  -14.7264  -39.3660   -7.4731 C   0  0  1  0  0  0  0  0  0  0  0  0
  -13.3398  -39.5640   -7.9745 C   0  0  0  0  0  0  0  0  0  0  0  0
  -12.9659  -38.8316   -9.2174 C   0  0  0  0  0  0  0  0  0  0  0  0
  -13.1135  -39.1619  -10.5319 C   0  0  0  0  0  0  0  0  0  0  0  0
  -12.6488  -38.2772  -11.4926 C   0  0  0  0  0  0  0  0  0  0  0  0
  -12.6746  -38.3742  -12.8561 O   0  0  0  0  0  0  0  0  0  0  0  0
  -13.1276  -38.9059  -13.9820 C   0  0  0  0  0  0  0  0  0  0  0  0
  -14.3280  -39.8366  -14.0035 C   0  0  0  0  0  0  0  0  0  0  0  0
  -15.5490  -39.6806  -13.6495 C   0  0  0  0  0  0  0  0  0  0  0  0
  -16.7839  -40.5561  -13.6450 C   0  0  0  0  0  0  0  0  0  0  0  0
  -16.7330  -41.7594  -12.8623 N   0  0  0  0  0  0  0  0  0  0  0  0
  -12.0385  -37.0631  -11.0866 C   0  0  0  0  0  0  0  0  0  0  0  0
  -11.5539  -36.1508  -12.0135 F   0  0  0  0  0  0  0  0  0  0  0  0
  -11.8750  -36.6998   -9.7748 C   0  0  0  0  0  0  0  0  0  0  0  0
  -12.3485  -37.6041   -8.8649 C   0  0  0  0  0  0  0  0  0  0  0  0
  -15.6180  -38.4047   -8.1451 C   0  0  2  0  0  0  0  0  0  0  0  0
  -15.0299  -37.1400   -8.1807 O   0  0  0  0  0  0  0  0  0  0  0  0
  -16.8669  -38.2774   -7.2368 C   0  0  0  0  0  0  0  0  0  0  0  0
  -17.9913  -38.9198   -7.8227 N   0  0  0  0  0  0  0  0  0  0  0  0
  -19.0257  -39.2843   -6.8803 C   0  0  0  0  0  0  0  0  0  0  0  0
  -18.9747  -38.4621   -5.5942 C   0  0  0  0  0  0  0  0  0  0  0  0
  -18.6168  -39.9329   -5.6075 C   0  0  0  0  0  0  0  0  0  0  0  0
  -20.3456  -39.6914   -7.3767 C   0  0  0  0  0  0  0  0  0  0  0  0
  -21.3866  -40.0179   -6.5252 C   0  0  0  0  0  0  0  0  0  0  0  0
  -22.6290  -40.4037   -6.9569 C   0  0  0  0  0  0  0  0  0  0  0  0
  -22.8516  -40.4692   -8.3142 C   0  0  0  0  0  0  0  0  0  0  0  0
  -21.8736  -40.1622   -9.2181 C   0  0  0  0  0  0  0  0  0  0  0  0
  -20.6201  -39.7733   -8.7210 C   0  0  0  0  0  0  0  0  0  0  0  0
  -23.7231  -40.7468   -6.0175 C   0  0  0  0  0  0  0  0  0  0  0  0
  -23.8076  -39.7759   -4.8667 C   0  0  0  0  0  0  0  0  0  0  0  0
  -25.0253  -40.6483   -6.7954 C   0  0  0  0  0  0  0  0  0  0  0  0
  -23.6250  -42.1731   -5.5099 C   0  0  0  0  0  0  0  0  0  0  0  0
  1  2  1  0
  2  3  1  0
  2  4  1  0
  4  5  2  0
  4  6  1  0
  6  7  2  0
  7  8  1  0
  8  9  2  0
  9 10  1  0
 10 11  2  0
 10 12  1  0
 12 13  2  0
 12 14  1  0
 14 15  1  0
 15 16  1  6
 16 17  1  0
 17 18  2  0
 18 19  1  0
 19 20  1  0
 20 21  1  0
 21 22  1  0
 22 23  2  0
 23 24  1  0
 24 25  1  0
 19 26  2  0
 26 27  1  0
 26 28  1  0
 28 29  2  0
 15 30  1  0
 30 31  1  1
 30 32  1  0
 32 33  1  0
 33 34  1  0
 34 35  1  0
 35 36  1  0
 34 37  1  0
 37 38  2  0
 38 39  1  0
 39 40  2  0
 40 41  1  0
 41 42  2  0
 39 43  1  0
 43 44  1  0
 43 45  1  0
 43 46  1  0
 11  6  1  0
 25  8  1  0
 29 17  1  0
 36 34  1  0
 42 37  1  0
M  END
$$$$
