
     RDKit          3D

 46 50  0  0  0  0  0  0  0  0999 V2000
  -24.6802  -45.5042   -9.1853 C   0  0  0  0  0  0  0  0  0  0  0  0
  -23.4200  -44.7917   -9.1895 N   0  0  0  0  0  0  0  0  0  0  0  0
  -22.1771  -45.5300   -9.1847 C   0  0  0  0  0  0  0  0  0  0  0  0
  -23.3909  -43.3869   -9.1981 C   0  0  0  0  0  0  0  0  0  0  0  0
  -24.4478  -42.7391   -9.0313 O   0  0  0  0  0  0  0  0  0  0  0  0
  -22.1530  -42.6269   -9.3988 C   0  0  0  0  0  0  0  0  0  0  0  0
  -21.7279  -42.2315  -10.6307 C   0  0  0  0  0  0  0  0  0  0  0  0
  -20.5341  -41.4885  -10.8535 C   0  0  0  0  0  0  0  0  0  0  0  0
  -19.7639  -41.1510   -9.7620 C   0  0  0  0  0  0  0  0  0  0  0  0
  -20.1363  -41.5205   -8.4860 C   0  0  0  0  0  0  0  0  0  0  0  0
  -21.3501  -42.2628   -8.3627 C   0  0  0  0  0  0  0  0  0  0  0  0
  -19.5109  -41.2963   -7.1765 C   0  0  0  0  0  0  0  0  0  0  0  0
  -20.3612  -41.1245   -6.1580 O   0  0  0  0  0  0  0  0  0  0  0  0
  -18.2082  -41.2115   -6.6700 N   0  0  0  0  0  0  0  0  0  0  0  0
  -17.1098  -40.3116   -7.0334 C   0  0  1  0  0  0  0  0  0  0  0  0
  -16.0059  -41.0859   -7.6620 C   0  0  0  0  0  0  0  0  0  0  0  0
  -15.4346  -40.5345   -8.9233 C   0  0  0  0  0  0  0  0  0  0  0  0
  -15.8140  -40.6912  -10.2234 C   0  0  0  0  0  0  0  0  0  0  0  0
  -15.0719  -40.0604  -11.2098 C   0  0  0  0  0  0  0  0  0  0  0  0
  -15.2409  -40.0614  -12.5665 O   0  0  0  0  0  0  0  0  0  0  0  0
  -15.9688  -40.2701  -13.6538 C   0  0  0  0  0  0  0  0  0  0  0  0
  -17.4586  -40.5574  -13.5789 C   0  0  0  0  0  0  0  0  0  0  0  0
  -18.4455  -39.8872  -13.1128 C   0  0  0  0  0  0  0  0  0  0  0  0
  -19.9390  -40.1110  -13.0081 C   0  0  0  0  0  0  0  0  0  0  0  0
  -20.3811  -41.2485  -12.2506 N   0  0  0  0  0  0  0  0  0  0  0  0
  -13.9488  -39.2755  -10.8439 C   0  0  0  0  0  0  0  0  0  0  0  0
  -13.1739  -38.6309  -11.7981 F   0  0  0  0  0  0  0  0  0  0  0  0
  -13.5405  -39.0965   -9.5475 C   0  0  0  0  0  0  0  0  0  0  0  0
  -14.3031  -39.7381   -8.6111 C   0  0  0  0  0  0  0  0  0  0  0  0
  -17.5157  -39.0168   -7.6075 C   0  0  2  0  0  0  0  0  0  0  0  0
  -16.3989  -38.3173   -8.0655 O   0  0  0  0  0  0  0  0  0  0  0  0
  -18.0915  -38.1918   -6.4290 C   0  0  0  0  0  0  0  0  0  0  0  0
  -18.9300  -38.9931   -5.6072 N   0  0  0  0  0  0  0  0  0  0  0  0
  -20.3413  -38.8670   -5.8959 C   0  0  0  0  0  0  0  0  0  0  0  0
  -20.6381  -37.8158   -6.9634 C   0  0  0  0  0  0  0  0  0  0  0  0
  -21.0240  -37.6032   -5.5152 C   0  0  0  0  0  0  0  0  0  0  0  0
  -21.1969  -40.0589   -5.8571 C   0  0  0  0  0  0  0  0  0  0  0  0
  -20.7191  -41.2990   -5.4709 C   0  0  0  0  0  0  0  0  0  0  0  0
  -21.4910  -42.4307   -5.4264 C   0  0  0  0  0  0  0  0  0  0  0  0
  -22.8160  -42.3255   -5.7864 C   0  0  0  0  0  0  0  0  0  0  0  0
  -23.3613  -41.1354   -6.1791 C   0  0  0  0  0  0  0  0  0  0  0  0
  -22.5252  -40.0085   -6.2064 C   0  0  0  0  0  0  0  0  0  0  0  0
  -20.9477  -43.7447   -5.0076 C   0  0  0  0  0  0  0  0  0  0  0  0
  -19.6179  -44.0405   -5.6545 C   0  0  0  0  0  0  0  0  0  0  0  0
  -20.7203  -43.6746   -3.5062 C   0  0  0  0  0  0  0  0  0  0  0  0
  -21.9255  -44.8794   -5.2482 C   0  0  0  0  0  0  0  0  0  0  0  0
  1  2  1  0
  2  3  1  0
  2  4  1  0
  4  5  2  0
  4  6  1  0
  6  7  2  0
  7  8  1  0
  8  9  2  0
  9 10  1  0
 10 11  2  0
 10 12  1  0
 12 13  2  0
 12 14  1  0
 14 15  1  0
 15 16  1  6
 16 17  1  0
 17 18  2  0
 18 19  1  0
 19 20  1  0
 20 21  1  0
 21 22  1  0
 22 23  2  0
 23 24  1  0
 24 25  1  0
 19 26  2  0
 26 27  1  0
 26 28  1  0
 28 29  2  0
 15 30  1  0
 30 31  1  1
 30 32  1  0
 32 33  1  0
 33 34  1  0
 34 35  1  0
 35 36  1  0
 34 37  1  0
 37 38  2  0
 38 39  1  0
 39 40  2  0
 40 41  1  0
 41 42  2  0
 39 43  1  0
 43 44  1  0
 43 45  1  0
 43 46  1  0
 11  6  1  0
 25  8  1  0
 29 17  1  0
 36 34  1  0
 42 37  1  0
M  END
$$$$
