
     RDKit          3D

 46 50  0  0  0  0  0  0  0  0999 V2000
  -23.8350  -43.5828   -4.7234 C   0  0  0  0  0  0  0  0  0  0  0  0
  -22.7467  -43.2048   -5.6000 N   0  0  0  0  0  0  0  0  0  0  0  0
  -22.9145  -42.1018   -6.5193 C   0  0  0  0  0  0  0  0  0  0  0  0
  -21.5258  -43.8995   -5.5674 C   0  0  0  0  0  0  0  0  0  0  0  0
  -21.3975  -44.9031   -4.8321 O   0  0  0  0  0  0  0  0  0  0  0  0
  -20.3685  -43.4946   -6.3719 C   0  0  0  0  0  0  0  0  0  0  0  0
  -19.8205  -44.2998   -7.3237 C   0  0  0  0  0  0  0  0  0  0  0  0
  -18.7014  -43.9302   -8.1223 C   0  0  0  0  0  0  0  0  0  0  0  0
  -18.1396  -42.6882   -7.9208 C   0  0  0  0  0  0  0  0  0  0  0  0
  -18.6451  -41.8232   -6.9724 C   0  0  0  0  0  0  0  0  0  0  0  0
  -19.7697  -42.2825   -6.2214 C   0  0  0  0  0  0  0  0  0  0  0  0
  -18.2436  -40.4717   -6.5622 C   0  0  0  0  0  0  0  0  0  0  0  0
  -19.2449  -39.6637   -6.1956 O   0  0  0  0  0  0  0  0  0  0  0  0
  -17.0454  -39.7578   -6.4376 N   0  0  0  0  0  0  0  0  0  0  0  0
  -16.0182  -39.4539   -7.4380 C   0  0  1  0  0  0  0  0  0  0  0  0
  -14.7535  -40.1596   -7.0978 C   0  0  0  0  0  0  0  0  0  0  0  0
  -14.0756  -40.8910   -8.2053 C   0  0  0  0  0  0  0  0  0  0  0  0
  -14.2445  -42.1584   -8.6786 C   0  0  0  0  0  0  0  0  0  0  0  0
  -13.4473  -42.5838   -9.7298 C   0  0  0  0  0  0  0  0  0  0  0  0
  -13.4194  -43.7895  -10.3738 O   0  0  0  0  0  0  0  0  0  0  0  0
  -13.9551  -44.9600  -10.6876 C   0  0  0  0  0  0  0  0  0  0  0  0
  -15.3969  -45.2988  -10.3496 C   0  0  0  0  0  0  0  0  0  0  0  0
  -16.5113  -44.7612  -10.6804 C   0  0  0  0  0  0  0  0  0  0  0  0
  -17.9683  -45.0453  -10.3835 C   0  0  0  0  0  0  0  0  0  0  0  0
  -18.3791  -45.0001   -9.0079 N   0  0  0  0  0  0  0  0  0  0  0  0
  -12.4867  -41.6976  -10.2804 C   0  0  0  0  0  0  0  0  0  0  0  0
  -11.6635  -42.0827  -11.3294 F   0  0  0  0  0  0  0  0  0  0  0  0
  -12.2915  -40.4177   -9.8296 C   0  0  0  0  0  0  0  0  0  0  0  0
  -13.1005  -40.0443   -8.7922 C   0  0  0  0  0  0  0  0  0  0  0  0
  -16.4854  -39.4203   -8.8349 C   0  0  2  0  0  0  0  0  0  0  0  0
  -15.3998  -39.4527   -9.7108 O   0  0  0  0  0  0  0  0  0  0  0  0
  -17.1557  -38.0364   -9.0252 C   0  0  0  0  0  0  0  0  0  0  0  0
  -18.0229  -37.7362   -7.9398 N   0  0  0  0  0  0  0  0  0  0  0  0
  -19.4276  -37.7392   -8.2827 C   0  0  0  0  0  0  0  0  0  0  0  0
  -20.2960  -38.4193   -7.2261 C   0  0  0  0  0  0  0  0  0  0  0  0
  -20.0716  -39.0433   -8.5869 C   0  0  0  0  0  0  0  0  0  0  0  0
  -19.9996  -36.5936   -9.0000 C   0  0  0  0  0  0  0  0  0  0  0  0
  -19.5077  -35.3086   -8.8515 C   0  0  0  0  0  0  0  0  0  0  0  0
  -20.0207  -34.2183   -9.5048 C   0  0  0  0  0  0  0  0  0  0  0  0
  -21.0850  -34.4148  -10.3561 C   0  0  0  0  0  0  0  0  0  0  0  0
  -21.6262  -35.6539  -10.5551 C   0  0  0  0  0  0  0  0  0  0  0  0
  -21.0619  -36.7350   -9.8606 C   0  0  0  0  0  0  0  0  0  0  0  0
  -19.4698  -32.8542   -9.3234 C   0  0  0  0  0  0  0  0  0  0  0  0
  -18.3872  -32.8148   -8.2743 C   0  0  0  0  0  0  0  0  0  0  0  0
  -18.8397  -32.4487  -10.6460 C   0  0  0  0  0  0  0  0  0  0  0  0
  -20.5470  -31.8296   -9.0211 C   0  0  0  0  0  0  0  0  0  0  0  0
  1  2  1  0
  2  3  1  0
  2  4  1  0
  4  5  2  0
  4  6  1  0
  6  7  2  0
  7  8  1  0
  8  9  2  0
  9 10  1  0
 10 11  2  0
 10 12  1  0
 12 13  2  0
 12 14  1  0
 14 15  1  0
 15 16  1  6
 16 17  1  0
 17 18  2  0
 18 19  1  0
 19 20  1  0
 20 21  1  0
 21 22  1  0
 22 23  2  0
 23 24  1  0
 24 25  1  0
 19 26  2  0
 26 27  1  0
 26 28  1  0
 28 29  2  0
 15 30  1  0
 30 31  1  6
 30 32  1  0
 32 33  1  0
 33 34  1  0
 34 35  1  0
 35 36  1  0
 34 37  1  0
 37 38  2  0
 38 39  1  0
 39 40  2  0
 40 41  1  0
 41 42  2  0
 39 43  1  0
 43 44  1  0
 43 45  1  0
 43 46  1  0
 11  6  1  0
 25  8  1  0
 29 17  1  0
 36 34  1  0
 42 37  1  0
M  END
$$$$
