
     RDKit          3D

 46 50  0  0  0  0  0  0  0  0999 V2000
  -25.5025  -42.3260   -8.2424 C   0  0  0  0  0  0  0  0  0  0  0  0
  -24.2423  -41.6156   -8.1867 N   0  0  0  0  0  0  0  0  0  0  0  0
  -24.0447  -40.5793   -7.1984 C   0  0  0  0  0  0  0  0  0  0  0  0
  -23.2062  -41.9229   -9.0847 C   0  0  0  0  0  0  0  0  0  0  0  0
  -23.3215  -42.8957   -9.8624 O   0  0  0  0  0  0  0  0  0  0  0  0
  -21.9680  -41.1404   -9.1547 C   0  0  0  0  0  0  0  0  0  0  0  0
  -21.8909  -39.9486   -9.8092 C   0  0  0  0  0  0  0  0  0  0  0  0
  -20.7042  -39.1661   -9.8881 C   0  0  0  0  0  0  0  0  0  0  0  0
  -19.5687  -39.6410   -9.2688 C   0  0  0  0  0  0  0  0  0  0  0  0
  -19.5774  -40.8415   -8.5890 C   0  0  0  0  0  0  0  0  0  0  0  0
  -20.8147  -41.5544   -8.5640 C   0  0  0  0  0  0  0  0  0  0  0  0
  -18.5289  -41.5637   -7.8574 C   0  0  0  0  0  0  0  0  0  0  0  0
  -18.9461  -42.2473   -6.7856 O   0  0  0  0  0  0  0  0  0  0  0  0
  -17.1461  -41.7492   -7.9760 N   0  0  0  0  0  0  0  0  0  0  0  0
  -16.0593  -40.7659   -7.9985 C   0  0  1  0  0  0  0  0  0  0  0  0
  -15.4108  -40.7564   -9.3374 C   0  0  0  0  0  0  0  0  0  0  0  0
  -15.1751  -39.4222   -9.9582 C   0  0  0  0  0  0  0  0  0  0  0  0
  -15.9794  -38.6376  -10.7305 C   0  0  0  0  0  0  0  0  0  0  0  0
  -15.4803  -37.4289  -11.1904 C   0  0  0  0  0  0  0  0  0  0  0  0
  -16.0758  -36.4770  -11.9704 O   0  0  0  0  0  0  0  0  0  0  0  0
  -17.1434  -35.9117  -12.5147 C   0  0  0  0  0  0  0  0  0  0  0  0
  -18.5536  -36.2985  -12.1031 C   0  0  0  0  0  0  0  0  0  0  0  0
  -19.1692  -36.2539  -10.9808 C   0  0  0  0  0  0  0  0  0  0  0  0
  -20.5596  -36.6182  -10.5058 C   0  0  0  0  0  0  0  0  0  0  0  0
  -20.9645  -37.9889  -10.6493 N   0  0  0  0  0  0  0  0  0  0  0  0
  -14.1591  -37.0437  -10.8480 C   0  0  0  0  0  0  0  0  0  0  0  0
  -13.6164  -35.8454  -11.2907 F   0  0  0  0  0  0  0  0  0  0  0  0
  -13.3246  -37.8074  -10.0735 C   0  0  0  0  0  0  0  0  0  0  0  0
  -13.8611  -38.9897   -9.6444 C   0  0  0  0  0  0  0  0  0  0  0  0
  -16.3431  -39.4929   -7.3131 C   0  0  2  0  0  0  0  0  0  0  0  0
  -15.1772  -38.9756   -6.7477 O   0  0  0  0  0  0  0  0  0  0  0  0
  -17.2792  -39.8472   -6.1302 C   0  0  0  0  0  0  0  0  0  0  0  0
  -18.5163  -39.1551   -6.2339 N   0  0  0  0  0  0  0  0  0  0  0  0
  -19.6017  -39.7638   -5.4974 C   0  0  0  0  0  0  0  0  0  0  0  0
  -20.7749  -38.8121   -5.2726 C   0  0  0  0  0  0  0  0  0  0  0  0
  -19.8894  -39.2598   -4.1295 C   0  0  0  0  0  0  0  0  0  0  0  0
  -19.9068  -41.1849   -5.7014 C   0  0  0  0  0  0  0  0  0  0  0  0
  -19.2491  -41.9536   -6.6458 C   0  0  0  0  0  0  0  0  0  0  0  0
  -19.5121  -43.2812   -6.8620 C   0  0  0  0  0  0  0  0  0  0  0  0
  -20.4858  -43.8819   -6.0955 C   0  0  0  0  0  0  0  0  0  0  0  0
  -21.1790  -43.1892   -5.1430 C   0  0  0  0  0  0  0  0  0  0  0  0
  -20.8690  -41.8322   -4.9636 C   0  0  0  0  0  0  0  0  0  0  0  0
  -18.7886  -44.0765   -7.8824 C   0  0  0  0  0  0  0  0  0  0  0  0
  -17.4821  -43.4359   -8.2789 C   0  0  0  0  0  0  0  0  0  0  0  0
  -18.4656  -45.4216   -7.2521 C   0  0  0  0  0  0  0  0  0  0  0  0
  -19.6394  -44.3611   -9.1058 C   0  0  0  0  0  0  0  0  0  0  0  0
  1  2  1  0
  2  3  1  0
  2  4  1  0
  4  5  2  0
  4  6  1  0
  6  7  2  0
  7  8  1  0
  8  9  2  0
  9 10  1  0
 10 11  2  0
 10 12  1  0
 12 13  2  0
 12 14  1  0
 14 15  1  0
 15 16  1  6
 16 17  1  0
 17 18  2  0
 18 19  1  0
 19 20  1  0
 20 21  1  0
 21 22  1  0
 22 23  2  0
 23 24  1  0
 24 25  1  0
 19 26  2  0
 26 27  1  0
 26 28  1  0
 28 29  2  0
 15 30  1  0
 30 31  1  1
 30 32  1  0
 32 33  1  0
 33 34  1  0
 34 35  1  0
 35 36  1  0
 34 37  1  0
 37 38  2  0
 38 39  1  0
 39 40  2  0
 40 41  1  0
 41 42  2  0
 39 43  1  0
 43 44  1  0
 43 45  1  0
 43 46  1  0
 11  6  1  0
 25  8  1  0
 29 17  1  0
 36 34  1  0
 42 37  1  0
M  END
$$$$
