
     RDKit          3D

 46 50  0  0  0  0  0  0  0  0999 V2000
  -16.2244  -46.9791   -7.4259 C   0  0  0  0  0  0  0  0  0  0  0  0
  -17.2789  -47.7754   -8.0173 N   0  0  0  0  0  0  0  0  0  0  0  0
  -17.0600  -49.1812   -8.2734 C   0  0  0  0  0  0  0  0  0  0  0  0
  -18.5161  -47.1960   -8.3460 C   0  0  0  0  0  0  0  0  0  0  0  0
  -19.4036  -47.8866   -8.8935 O   0  0  0  0  0  0  0  0  0  0  0  0
  -18.8230  -45.7884   -8.0724 C   0  0  0  0  0  0  0  0  0  0  0  0
  -19.6848  -45.4042   -7.0904 C   0  0  0  0  0  0  0  0  0  0  0  0
  -19.9964  -44.0458   -6.7998 C   0  0  0  0  0  0  0  0  0  0  0  0
  -19.3935  -43.0636   -7.5550 C   0  0  0  0  0  0  0  0  0  0  0  0
  -18.5107  -43.3835   -8.5657 C   0  0  0  0  0  0  0  0  0  0  0  0
  -18.2605  -44.7729   -8.7816 C   0  0  0  0  0  0  0  0  0  0  0  0
  -17.7465  -42.5503   -9.5027 C   0  0  0  0  0  0  0  0  0  0  0  0
  -16.5399  -43.0228   -9.8356 O   0  0  0  0  0  0  0  0  0  0  0  0
  -17.9387  -41.3410  -10.1819 N   0  0  0  0  0  0  0  0  0  0  0  0
  -18.2232  -40.0003   -9.6623 C   0  0  1  0  0  0  0  0  0  0  0  0
  -19.5890  -39.5761  -10.0721 C   0  0  0  0  0  0  0  0  0  0  0  0
  -20.4559  -38.9916   -9.0101 C   0  0  0  0  0  0  0  0  0  0  0  0
  -21.2905  -39.5819   -8.1079 C   0  0  0  0  0  0  0  0  0  0  0  0
  -21.9979  -38.7724   -7.2328 C   0  0  0  0  0  0  0  0  0  0  0  0
  -22.8866  -39.1128   -6.2512 O   0  0  0  0  0  0  0  0  0  0  0  0
  -23.4375  -39.9911   -5.4262 C   0  0  0  0  0  0  0  0  0  0  0  0
  -22.8531  -41.3788   -5.2249 C   0  0  0  0  0  0  0  0  0  0  0  0
  -21.7120  -41.7837   -4.8072 C   0  0  0  0  0  0  0  0  0  0  0  0
  -21.0710  -43.1366   -4.5834 C   0  0  0  0  0  0  0  0  0  0  0  0
  -20.9336  -43.9955   -5.7265 N   0  0  0  0  0  0  0  0  0  0  0  0
  -21.8357  -37.3650   -7.2979 C   0  0  0  0  0  0  0  0  0  0  0  0
  -22.5278  -36.5161   -6.4454 F   0  0  0  0  0  0  0  0  0  0  0  0
  -21.0051  -36.7393   -8.1912 C   0  0  0  0  0  0  0  0  0  0  0  0
  -20.3296  -37.5789   -9.0330 C   0  0  0  0  0  0  0  0  0  0  0  0
  -17.7572  -39.7417   -8.2887 C   0  0  2  0  0  0  0  0  0  0  0  0
  -18.1546  -38.4707   -7.8724 O   0  0  0  0  0  0  0  0  0  0  0  0
  -16.2098  -39.7097   -8.3644 C   0  0  0  0  0  0  0  0  0  0  0  0
  -15.7275  -40.6303   -9.3340 N   0  0  0  0  0  0  0  0  0  0  0  0
  -14.3696  -40.3830   -9.7649 C   0  0  0  0  0  0  0  0  0  0  0  0
  -13.4706  -41.6105   -9.6309 C   0  0  0  0  0  0  0  0  0  0  0  0
  -13.2949  -40.4003   -8.7388 C   0  0  0  0  0  0  0  0  0  0  0  0
  -14.1222  -39.4774  -10.8931 C   0  0  0  0  0  0  0  0  0  0  0  0
  -14.7284  -38.2371  -10.9915 C   0  0  0  0  0  0  0  0  0  0  0  0
  -14.5203  -37.3700  -12.0324 C   0  0  0  0  0  0  0  0  0  0  0  0
  -13.6595  -37.7566  -13.0353 C   0  0  0  0  0  0  0  0  0  0  0  0
  -13.0232  -38.9658  -13.0091 C   0  0  0  0  0  0  0  0  0  0  0  0
  -13.2728  -39.8146  -11.9198 C   0  0  0  0  0  0  0  0  0  0  0  0
  -15.1857  -36.0476  -12.1073 C   0  0  0  0  0  0  0  0  0  0  0  0
  -14.6726  -35.0944  -11.0574 C   0  0  0  0  0  0  0  0  0  0  0  0
  -14.8486  -35.4557  -13.4663 C   0  0  0  0  0  0  0  0  0  0  0  0
  -16.6976  -36.1551  -12.0412 C   0  0  0  0  0  0  0  0  0  0  0  0
  1  2  1  0
  2  3  1  0
  2  4  1  0
  4  5  2  0
  4  6  1  0
  6  7  2  0
  7  8  1  0
  8  9  2  0
  9 10  1  0
 10 11  2  0
 10 12  1  0
 12 13  2  0
 12 14  1  0
 14 15  1  0
 15 16  1  1
 16 17  1  0
 17 18  2  0
 18 19  1  0
 19 20  1  0
 20 21  1  0
 21 22  1  0
 22 23  2  0
 23 24  1  0
 24 25  1  0
 19 26  2  0
 26 27  1  0
 26 28  1  0
 28 29  2  0
 15 30  1  0
 30 31  1  6
 30 32  1  0
 32 33  1  0
 33 34  1  0
 34 35  1  0
 35 36  1  0
 34 37  1  0
 37 38  2  0
 38 39  1  0
 39 40  2  0
 40 41  1  0
 41 42  2  0
 39 43  1  0
 43 44  1  0
 43 45  1  0
 43 46  1  0
 11  6  1  0
 25  8  1  0
 29 17  1  0
 36 34  1  0
 42 37  1  0
M  END
$$$$
