
     RDKit          3D

 46 50  0  0  0  0  0  0  0  0999 V2000
  -17.1076  -49.3549  -10.1922 C   0  0  0  0  0  0  0  0  0  0  0  0
  -17.2911  -47.9803   -9.7768 N   0  0  0  0  0  0  0  0  0  0  0  0
  -16.1403  -47.1235   -9.5995 C   0  0  0  0  0  0  0  0  0  0  0  0
  -18.5784  -47.4678   -9.5435 C   0  0  0  0  0  0  0  0  0  0  0  0
  -19.5819  -48.1906   -9.7308 O   0  0  0  0  0  0  0  0  0  0  0  0
  -18.8069  -46.0951   -9.0811 C   0  0  0  0  0  0  0  0  0  0  0  0
  -19.3428  -45.8129   -7.8613 C   0  0  0  0  0  0  0  0  0  0  0  0
  -19.5701  -44.4906   -7.3853 C   0  0  0  0  0  0  0  0  0  0  0  0
  -19.2302  -43.4361   -8.2045 C   0  0  0  0  0  0  0  0  0  0  0  0
  -18.6836  -43.6516   -9.4528 C   0  0  0  0  0  0  0  0  0  0  0  0
  -18.4924  -45.0123   -9.8421 C   0  0  0  0  0  0  0  0  0  0  0  0
  -18.2418  -42.7270  -10.5046 C   0  0  0  0  0  0  0  0  0  0  0  0
  -17.1830  -43.1321  -11.2150 O   0  0  0  0  0  0  0  0  0  0  0  0
  -18.6413  -41.4794  -10.9990 N   0  0  0  0  0  0  0  0  0  0  0  0
  -18.7745  -40.1902  -10.3142 C   0  0  1  0  0  0  0  0  0  0  0  0
  -20.2053  -39.7853  -10.2679 C   0  0  0  0  0  0  0  0  0  0  0  0
  -20.7246  -39.3093   -8.9546 C   0  0  0  0  0  0  0  0  0  0  0  0
  -21.2468  -39.9916   -7.8960 C   0  0  0  0  0  0  0  0  0  0  0  0
  -21.6719  -39.2723   -6.7899 C   0  0  0  0  0  0  0  0  0  0  0  0
  -22.2251  -39.7132   -5.6200 O   0  0  0  0  0  0  0  0  0  0  0  0
  -22.4958  -40.6672   -4.7413 C   0  0  0  0  0  0  0  0  0  0  0  0
  -21.8616  -42.0446   -4.8318 C   0  0  0  0  0  0  0  0  0  0  0  0
  -20.6433  -42.4387   -4.8028 C   0  0  0  0  0  0  0  0  0  0  0  0
  -19.9488  -43.7812   -4.8858 C   0  0  0  0  0  0  0  0  0  0  0  0
  -20.1469  -44.5502   -6.0827 N   0  0  0  0  0  0  0  0  0  0  0  0
  -21.5530  -37.8591   -6.7885 C   0  0  0  0  0  0  0  0  0  0  0  0
  -21.9708  -37.0983   -5.7054 F   0  0  0  0  0  0  0  0  0  0  0  0
  -21.0324  -37.1422   -7.8347 C   0  0  0  0  0  0  0  0  0  0  0  0
  -20.6275  -37.8951   -8.9020 C   0  0  0  0  0  0  0  0  0  0  0  0
  -17.9248  -40.0152   -9.1234 C   0  0  2  0  0  0  0  0  0  0  0  0
  -18.4372  -39.0081   -8.3051 O   0  0  0  0  0  0  0  0  0  0  0  0
  -16.5614  -39.4975   -9.6471 C   0  0  0  0  0  0  0  0  0  0  0  0
  -16.0586  -40.3376  -10.6775 N   0  0  0  0  0  0  0  0  0  0  0  0
  -14.6612  -40.1297  -10.9853 C   0  0  0  0  0  0  0  0  0  0  0  0
  -14.1165  -41.1430  -11.9900 C   0  0  0  0  0  0  0  0  0  0  0  0
  -13.6851  -41.1574  -10.5391 C   0  0  0  0  0  0  0  0  0  0  0  0
  -14.1278  -38.7633  -11.0387 C   0  0  0  0  0  0  0  0  0  0  0  0
  -14.9362  -37.6630  -11.2646 C   0  0  0  0  0  0  0  0  0  0  0  0
  -14.4690  -36.3758  -11.3224 C   0  0  0  0  0  0  0  0  0  0  0  0
  -13.1193  -36.1680  -11.1456 C   0  0  0  0  0  0  0  0  0  0  0  0
  -12.2569  -37.2036  -10.9182 C   0  0  0  0  0  0  0  0  0  0  0  0
  -12.7892  -38.5013  -10.8690 C   0  0  0  0  0  0  0  0  0  0  0  0
  -15.3626  -35.2185  -11.5661 C   0  0  0  0  0  0  0  0  0  0  0  0
  -14.8832  -33.9739  -10.8623 C   0  0  0  0  0  0  0  0  0  0  0  0
  -15.3326  -34.9393  -13.0601 C   0  0  0  0  0  0  0  0  0  0  0  0
  -16.8063  -35.5154  -11.2068 C   0  0  0  0  0  0  0  0  0  0  0  0
  1  2  1  0
  2  3  1  0
  2  4  1  0
  4  5  2  0
  4  6  1  0
  6  7  2  0
  7  8  1  0
  8  9  2  0
  9 10  1  0
 10 11  2  0
 10 12  1  0
 12 13  2  0
 12 14  1  0
 14 15  1  0
 15 16  1  1
 16 17  1  0
 17 18  2  0
 18 19  1  0
 19 20  1  0
 20 21  1  0
 21 22  1  0
 22 23  2  0
 23 24  1  0
 24 25  1  0
 19 26  2  0
 26 27  1  0
 26 28  1  0
 28 29  2  0
 15 30  1  0
 30 31  1  1
 30 32  1  0
 32 33  1  0
 33 34  1  0
 34 35  1  0
 35 36  1  0
 34 37  1  0
 37 38  2  0
 38 39  1  0
 39 40  2  0
 40 41  1  0
 41 42  2  0
 39 43  1  0
 43 44  1  0
 43 45  1  0
 43 46  1  0
 11  6  1  0
 25  8  1  0
 29 17  1  0
 36 34  1  0
 42 37  1  0
M  END
$$$$
