
     RDKit          3D

 46 50  0  0  0  0  0  0  0  0999 V2000
  -18.6260  -48.8161   -7.4065 C   0  0  0  0  0  0  0  0  0  0  0  0
  -18.1978  -47.4417   -7.5592 N   0  0  0  0  0  0  0  0  0  0  0  0
  -17.2834  -46.8632   -6.6006 C   0  0  0  0  0  0  0  0  0  0  0  0
  -18.6620  -46.6613   -8.6316 C   0  0  0  0  0  0  0  0  0  0  0  0
  -19.5735  -47.0943   -9.3707 O   0  0  0  0  0  0  0  0  0  0  0  0
  -18.1162  -45.3341   -8.9329 C   0  0  0  0  0  0  0  0  0  0  0  0
  -17.5262  -45.0380  -10.1241 C   0  0  0  0  0  0  0  0  0  0  0  0
  -16.9933  -43.7575  -10.4450 C   0  0  0  0  0  0  0  0  0  0  0  0
  -17.0776  -42.7609   -9.4971 C   0  0  0  0  0  0  0  0  0  0  0  0
  -17.6624  -42.9935   -8.2694 C   0  0  0  0  0  0  0  0  0  0  0  0
  -18.1691  -44.3090   -8.0402 C   0  0  0  0  0  0  0  0  0  0  0  0
  -17.8768  -42.1269   -7.1035 C   0  0  0  0  0  0  0  0  0  0  0  0
  -19.0028  -42.3571   -6.4187 O   0  0  0  0  0  0  0  0  0  0  0  0
  -17.1963  -41.0771   -6.4747 N   0  0  0  0  0  0  0  0  0  0  0  0
  -16.7622  -39.7810   -7.0041 C   0  0  1  0  0  0  0  0  0  0  0  0
  -15.2763  -39.7190   -7.0397 C   0  0  0  0  0  0  0  0  0  0  0  0
  -14.6566  -39.2208   -8.3002 C   0  0  0  0  0  0  0  0  0  0  0  0
  -14.3071  -39.8717   -9.4461 C   0  0  0  0  0  0  0  0  0  0  0  0
  -13.7222  -39.1421  -10.4694 C   0  0  0  0  0  0  0  0  0  0  0  0
  -13.2856  -39.5537  -11.6979 O   0  0  0  0  0  0  0  0  0  0  0  0
  -13.2447  -40.4299  -12.6909 C   0  0  0  0  0  0  0  0  0  0  0  0
  -14.1852  -41.6215  -12.7484 C   0  0  0  0  0  0  0  0  0  0  0  0
  -15.4619  -41.7135  -12.7919 C   0  0  0  0  0  0  0  0  0  0  0  0
  -16.4527  -42.8564  -12.8512 C   0  0  0  0  0  0  0  0  0  0  0  0
  -16.4438  -43.7907  -11.7601 N   0  0  0  0  0  0  0  0  0  0  0  0
  -13.5056  -37.7509  -10.2992 C   0  0  0  0  0  0  0  0  0  0  0  0
  -12.9181  -36.9824  -11.2945 F   0  0  0  0  0  0  0  0  0  0  0  0
  -13.8454  -37.0655   -9.1615 C   0  0  0  0  0  0  0  0  0  0  0  0
  -14.4184  -37.8275   -8.1813 C   0  0  0  0  0  0  0  0  0  0  0  0
  -17.5443  -39.2683   -8.1426 C   0  0  2  0  0  0  0  0  0  0  0  0
  -16.9247  -38.1447   -8.6904 O   0  0  0  0  0  0  0  0  0  0  0  0
  -18.8878  -38.7765   -7.5476 C   0  0  0  0  0  0  0  0  0  0  0  0
  -19.3019  -39.6051   -6.4696 N   0  0  0  0  0  0  0  0  0  0  0  0
  -20.6159  -40.1851   -6.6362 C   0  0  0  0  0  0  0  0  0  0  0  0
  -21.5843  -39.7935   -5.5219 C   0  0  0  0  0  0  0  0  0  0  0  0
  -21.0602  -41.2074   -5.6536 C   0  0  0  0  0  0  0  0  0  0  0  0
  -21.1648  -40.3569   -7.9865 C   0  0  0  0  0  0  0  0  0  0  0  0
  -22.4398  -40.8471   -8.2089 C   0  0  0  0  0  0  0  0  0  0  0  0
  -22.9802  -41.0212   -9.4564 C   0  0  0  0  0  0  0  0  0  0  0  0
  -22.2096  -40.6891  -10.5482 C   0  0  0  0  0  0  0  0  0  0  0  0
  -20.9413  -40.1991  -10.4099 C   0  0  0  0  0  0  0  0  0  0  0  0
  -20.4378  -40.0410   -9.1094 C   0  0  0  0  0  0  0  0  0  0  0  0
  -24.3504  -41.5488   -9.6599 C   0  0  0  0  0  0  0  0  0  0  0  0
  -24.8981  -42.1996   -8.4146 C   0  0  0  0  0  0  0  0  0  0  0  0
  -25.2415  -40.3609   -9.9848 C   0  0  0  0  0  0  0  0  0  0  0  0
  -24.4372  -42.4955  -10.8422 C   0  0  0  0  0  0  0  0  0  0  0  0
  1  2  1  0
  2  3  1  0
  2  4  1  0
  4  5  2  0
  4  6  1  0
  6  7  2  0
  7  8  1  0
  8  9  2  0
  9 10  1  0
 10 11  2  0
 10 12  1  0
 12 13  2  0
 12 14  1  0
 14 15  1  0
 15 16  1  6
 16 17  1  0
 17 18  2  0
 18 19  1  0
 19 20  1  0
 20 21  1  0
 21 22  1  0
 22 23  2  0
 23 24  1  0
 24 25  1  0
 19 26  2  0
 26 27  1  0
 26 28  1  0
 28 29  2  0
 15 30  1  0
 30 31  1  1
 30 32  1  0
 32 33  1  0
 33 34  1  0
 34 35  1  0
 35 36  1  0
 34 37  1  0
 37 38  2  0
 38 39  1  0
 39 40  2  0
 40 41  1  0
 41 42  2  0
 39 43  1  0
 43 44  1  0
 43 45  1  0
 43 46  1  0
 11  6  1  0
 25  8  1  0
 29 17  1  0
 36 34  1  0
 42 37  1  0
M  END
$$$$
