
     RDKit          3D

 46 50  0  0  0  0  0  0  0  0999 V2000
  -23.1056  -45.7531   -6.1148 C   0  0  0  0  0  0  0  0  0  0  0  0
  -22.1268  -44.8180   -6.6278 N   0  0  0  0  0  0  0  0  0  0  0  0
  -22.4753  -43.4230   -6.7777 C   0  0  0  0  0  0  0  0  0  0  0  0
  -20.8383  -45.2519   -6.9827 C   0  0  0  0  0  0  0  0  0  0  0  0
  -20.5244  -46.4549   -6.8459 O   0  0  0  0  0  0  0  0  0  0  0  0
  -19.8209  -44.3411   -7.5172 C   0  0  0  0  0  0  0  0  0  0  0  0
  -19.3602  -44.4269   -8.7959 C   0  0  0  0  0  0  0  0  0  0  0  0
  -18.3779  -43.5531   -9.3420 C   0  0  0  0  0  0  0  0  0  0  0  0
  -17.8626  -42.5650   -8.5315 C   0  0  0  0  0  0  0  0  0  0  0  0
  -18.2849  -42.4227   -7.2259 C   0  0  0  0  0  0  0  0  0  0  0  0
  -19.2740  -43.3457   -6.7684 C   0  0  0  0  0  0  0  0  0  0  0  0
  -17.9067  -41.4762   -6.1689 C   0  0  0  0  0  0  0  0  0  0  0  0
  -18.8933  -41.1228   -5.3372 O   0  0  0  0  0  0  0  0  0  0  0  0
  -16.7431  -40.8097   -5.7657 N   0  0  0  0  0  0  0  0  0  0  0  0
  -15.8748  -39.8914   -6.5081 C   0  0  1  0  0  0  0  0  0  0  0  0
  -14.5399  -40.5134   -6.7186 C   0  0  0  0  0  0  0  0  0  0  0  0
  -13.9753  -40.4378   -8.0958 C   0  0  0  0  0  0  0  0  0  0  0  0
  -14.1360  -41.2527   -9.1770 C   0  0  0  0  0  0  0  0  0  0  0  0
  -13.4625  -40.9396  -10.3474 C   0  0  0  0  0  0  0  0  0  0  0  0
  -13.4544  -41.5871  -11.5515 O   0  0  0  0  0  0  0  0  0  0  0  0
  -13.9625  -42.4516  -12.4176 C   0  0  0  0  0  0  0  0  0  0  0  0
  -15.3265  -43.0872  -12.2101 C   0  0  0  0  0  0  0  0  0  0  0  0
  -16.5024  -42.5921  -12.0970 C   0  0  0  0  0  0  0  0  0  0  0  0
  -17.8899  -43.1617  -11.8920 C   0  0  0  0  0  0  0  0  0  0  0  0
  -18.1176  -43.9215  -10.6945 N   0  0  0  0  0  0  0  0  0  0  0  0
  -12.6324  -39.7905  -10.3891 C   0  0  0  0  0  0  0  0  0  0  0  0
  -11.9350  -39.4422  -11.5374 F   0  0  0  0  0  0  0  0  0  0  0  0
  -12.4492  -38.9500   -9.3216 C   0  0  0  0  0  0  0  0  0  0  0  0
  -13.1334  -39.3001   -8.1906 C   0  0  0  0  0  0  0  0  0  0  0  0
  -16.5232  -39.1582   -7.6094 C   0  0  2  0  0  0  0  0  0  0  0  0
  -15.5924  -38.3608   -8.2760 O   0  0  0  0  0  0  0  0  0  0  0  0
  -17.5268  -38.1863   -6.9393 C   0  0  0  0  0  0  0  0  0  0  0  0
  -18.7368  -38.1112   -7.6813 N   0  0  0  0  0  0  0  0  0  0  0  0
  -19.8794  -38.6972   -7.0164 C   0  0  0  0  0  0  0  0  0  0  0  0
  -20.2637  -37.9607   -5.7348 C   0  0  0  0  0  0  0  0  0  0  0  0
  -19.6643  -39.3503   -5.6991 C   0  0  0  0  0  0  0  0  0  0  0  0
  -20.9620  -39.2804   -7.8177 C   0  0  0  0  0  0  0  0  0  0  0  0
  -20.9882  -39.1935   -9.1987 C   0  0  0  0  0  0  0  0  0  0  0  0
  -21.9852  -39.7250   -9.9748 C   0  0  0  0  0  0  0  0  0  0  0  0
  -23.0175  -40.3818   -9.3429 C   0  0  0  0  0  0  0  0  0  0  0  0
  -23.0622  -40.5089   -7.9829 C   0  0  0  0  0  0  0  0  0  0  0  0
  -22.0153  -39.9456   -7.2370 C   0  0  0  0  0  0  0  0  0  0  0  0
  -21.9830  -39.6144  -11.4529 C   0  0  0  0  0  0  0  0  0  0  0  0
  -21.2749  -38.3702  -11.9273 C   0  0  0  0  0  0  0  0  0  0  0  0
  -21.2131  -40.8109  -11.9880 C   0  0  0  0  0  0  0  0  0  0  0  0
  -23.3787  -39.6948  -12.0421 C   0  0  0  0  0  0  0  0  0  0  0  0
  1  2  1  0
  2  3  1  0
  2  4  1  0
  4  5  2  0
  4  6  1  0
  6  7  2  0
  7  8  1  0
  8  9  2  0
  9 10  1  0
 10 11  2  0
 10 12  1  0
 12 13  2  0
 12 14  1  0
 14 15  1  0
 15 16  1  6
 16 17  1  0
 17 18  2  0
 18 19  1  0
 19 20  1  0
 20 21  1  0
 21 22  1  0
 22 23  2  0
 23 24  1  0
 24 25  1  0
 19 26  2  0
 26 27  1  0
 26 28  1  0
 28 29  2  0
 15 30  1  0
 30 31  1  1
 30 32  1  0
 32 33  1  0
 33 34  1  0
 34 35  1  0
 35 36  1  0
 34 37  1  0
 37 38  2  0
 38 39  1  0
 39 40  2  0
 40 41  1  0
 41 42  2  0
 39 43  1  0
 43 44  1  0
 43 45  1  0
 43 46  1  0
 11  6  1  0
 25  8  1  0
 29 17  1  0
 36 34  1  0
 42 37  1  0
M  END
$$$$
