
     RDKit          3D

 46 50  0  0  0  0  0  0  0  0999 V2000
  -18.1703  -40.0444   -2.9320 C   0  0  0  0  0  0  0  0  0  0  0  0
  -16.7657  -40.3668   -2.7941 N   0  0  0  0  0  0  0  0  0  0  0  0
  -16.2008  -40.5698   -1.4790 C   0  0  0  0  0  0  0  0  0  0  0  0
  -15.9430  -40.4850   -3.9270 C   0  0  0  0  0  0  0  0  0  0  0  0
  -14.7530  -40.8488   -3.7997 O   0  0  0  0  0  0  0  0  0  0  0  0
  -16.4233  -40.1950   -5.2818 C   0  0  0  0  0  0  0  0  0  0  0  0
  -15.6750  -39.5151   -6.1942 C   0  0  0  0  0  0  0  0  0  0  0  0
  -16.1139  -39.2249   -7.5170 C   0  0  0  0  0  0  0  0  0  0  0  0
  -17.3670  -39.6546   -7.8962 C   0  0  0  0  0  0  0  0  0  0  0  0
  -18.1771  -40.3481   -7.0210 C   0  0  0  0  0  0  0  0  0  0  0  0
  -17.6495  -40.5923   -5.7166 C   0  0  0  0  0  0  0  0  0  0  0  0
  -19.5271  -40.9075   -7.1655 C   0  0  0  0  0  0  0  0  0  0  0  0
  -19.7491  -42.0462   -6.4991 O   0  0  0  0  0  0  0  0  0  0  0  0
  -20.7070  -40.5632   -7.8363 N   0  0  0  0  0  0  0  0  0  0  0  0
  -20.9518  -40.3416   -9.2644 C   0  0  1  0  0  0  0  0  0  0  0  0
  -21.2909  -38.9133   -9.5058 C   0  0  0  0  0  0  0  0  0  0  0  0
  -20.5834  -38.2375  -10.6300 C   0  0  0  0  0  0  0  0  0  0  0  0
  -19.3812  -37.5961  -10.6769 C   0  0  0  0  0  0  0  0  0  0  0  0
  -18.9758  -37.0373  -11.8790 C   0  0  0  0  0  0  0  0  0  0  0  0
  -17.8335  -36.3504  -12.1828 O   0  0  0  0  0  0  0  0  0  0  0  0
  -16.5873  -35.9817  -11.9246 C   0  0  0  0  0  0  0  0  0  0  0  0
  -15.7717  -36.6299  -10.8190 C   0  0  0  0  0  0  0  0  0  0  0  0
  -15.3990  -37.8382  -10.6149 C   0  0  0  0  0  0  0  0  0  0  0  0
  -14.5929  -38.5452   -9.5464 C   0  0  0  0  0  0  0  0  0  0  0  0
  -15.0980  -38.4965   -8.2026 N   0  0  0  0  0  0  0  0  0  0  0  0
  -19.8141  -37.1473  -13.0177 C   0  0  0  0  0  0  0  0  0  0  0  0
  -19.4512  -36.5983  -14.2397 F   0  0  0  0  0  0  0  0  0  0  0  0
  -21.0274  -37.7854  -13.0056 C   0  0  0  0  0  0  0  0  0  0  0  0
  -21.3836  -38.3197  -11.7984 C   0  0  0  0  0  0  0  0  0  0  0  0
  -20.0339  -41.0414  -10.1800 C   0  0  2  0  0  0  0  0  0  0  0  0
  -20.5344  -41.0164  -11.4821 O   0  0  0  0  0  0  0  0  0  0  0  0
  -20.0450  -42.5268   -9.7390 C   0  0  0  0  0  0  0  0  0  0  0  0
  -19.6439  -42.6588   -8.3818 N   0  0  0  0  0  0  0  0  0  0  0  0
  -20.7247  -42.9573   -7.4687 C   0  0  0  0  0  0  0  0  0  0  0  0
  -20.2405  -43.5570   -6.1501 C   0  0  0  0  0  0  0  0  0  0  0  0
  -21.0075  -44.3831   -7.1603 C   0  0  0  0  0  0  0  0  0  0  0  0
  -21.8996  -42.0787   -7.4267 C   0  0  0  0  0  0  0  0  0  0  0  0
  -22.6308  -41.7682   -8.5599 C   0  0  0  0  0  0  0  0  0  0  0  0
  -23.7304  -40.9499   -8.5544 C   0  0  0  0  0  0  0  0  0  0  0  0
  -24.1281  -40.4075   -7.3527 C   0  0  0  0  0  0  0  0  0  0  0  0
  -23.4573  -40.6670   -6.1906 C   0  0  0  0  0  0  0  0  0  0  0  0
  -22.3383  -41.5116   -6.2540 C   0  0  0  0  0  0  0  0  0  0  0  0
  -24.4920  -40.6375   -9.7870 C   0  0  0  0  0  0  0  0  0  0  0  0
  -23.6130  -40.6394  -11.0124 C   0  0  0  0  0  0  0  0  0  0  0  0
  -25.5250  -41.7387   -9.9636 C   0  0  0  0  0  0  0  0  0  0  0  0
  -25.2591  -39.3331   -9.6793 C   0  0  0  0  0  0  0  0  0  0  0  0
  1  2  1  0
  2  3  1  0
  2  4  1  0
  4  5  2  0
  4  6  1  0
  6  7  2  0
  7  8  1  0
  8  9  2  0
  9 10  1  0
 10 11  2  0
 10 12  1  0
 12 13  2  0
 12 14  1  0
 14 15  1  0
 15 16  1  1
 16 17  1  0
 17 18  2  0
 18 19  1  0
 19 20  1  0
 20 21  1  0
 21 22  1  0
 22 23  2  0
 23 24  1  0
 24 25  1  0
 19 26  2  0
 26 27  1  0
 26 28  1  0
 28 29  2  0
 15 30  1  0
 30 31  1  6
 30 32  1  0
 32 33  1  0
 33 34  1  0
 34 35  1  0
 35 36  1  0
 34 37  1  0
 37 38  2  0
 38 39  1  0
 39 40  2  0
 40 41  1  0
 41 42  2  0
 39 43  1  0
 43 44  1  0
 43 45  1  0
 43 46  1  0
 11  6  1  0
 25  8  1  0
 29 17  1  0
 36 34  1  0
 42 37  1  0
M  END
$$$$
