
     RDKit          3D

 46 50  0  0  0  0  0  0  0  0999 V2000
  -19.3412  -45.9165   -9.3410 C   0  0  0  0  0  0  0  0  0  0  0  0
  -18.2915  -46.8082   -9.7868 N   0  0  0  0  0  0  0  0  0  0  0  0
  -18.5423  -48.2297   -9.8672 C   0  0  0  0  0  0  0  0  0  0  0  0
  -17.0283  -46.3067  -10.1432 C   0  0  0  0  0  0  0  0  0  0  0  0
  -16.0903  -47.0958  -10.3921 O   0  0  0  0  0  0  0  0  0  0  0  0
  -16.7507  -44.8700  -10.2389 C   0  0  0  0  0  0  0  0  0  0  0  0
  -16.5434  -44.2418  -11.4293 C   0  0  0  0  0  0  0  0  0  0  0  0
  -16.2777  -42.8485  -11.5515 C   0  0  0  0  0  0  0  0  0  0  0  0
  -16.2259  -42.0922  -10.4009 C   0  0  0  0  0  0  0  0  0  0  0  0
  -16.4261  -42.6655   -9.1621 C   0  0  0  0  0  0  0  0  0  0  0  0
  -16.6871  -44.0695   -9.1408 C   0  0  0  0  0  0  0  0  0  0  0  0
  -16.4240  -42.1011   -7.8066 C   0  0  0  0  0  0  0  0  0  0  0  0
  -17.2875  -42.6614   -6.9519 O   0  0  0  0  0  0  0  0  0  0  0  0
  -15.7338  -41.0924   -7.1232 N   0  0  0  0  0  0  0  0  0  0  0  0
  -15.6204  -39.6605   -7.4151 C   0  0  1  0  0  0  0  0  0  0  0  0
  -14.2179  -39.3266   -7.7823 C   0  0  0  0  0  0  0  0  0  0  0  0
  -14.0258  -38.4846   -8.9968 C   0  0  0  0  0  0  0  0  0  0  0  0
  -13.9199  -38.8209  -10.3139 C   0  0  0  0  0  0  0  0  0  0  0  0
  -13.7256  -37.8093  -11.2415 C   0  0  0  0  0  0  0  0  0  0  0  0
  -13.5880  -37.8831  -12.5997 O   0  0  0  0  0  0  0  0  0  0  0  0
  -13.7083  -38.5224  -13.7541 C   0  0  0  0  0  0  0  0  0  0  0  0
  -14.4760  -39.8279  -13.8718 C   0  0  0  0  0  0  0  0  0  0  0  0
  -15.6961  -40.1373  -13.6353 C   0  0  0  0  0  0  0  0  0  0  0  0
  -16.5184  -41.4047  -13.7312 C   0  0  0  0  0  0  0  0  0  0  0  0
  -16.1020  -42.5201  -12.9277 N   0  0  0  0  0  0  0  0  0  0  0  0
  -13.6436  -36.4640  -10.8003 C   0  0  0  0  0  0  0  0  0  0  0  0
  -13.4442  -35.4201  -11.6930 F   0  0  0  0  0  0  0  0  0  0  0  0
  -13.7467  -36.0910   -9.4851 C   0  0  0  0  0  0  0  0  0  0  0  0
  -13.9372  -37.1231   -8.6085 C   0  0  0  0  0  0  0  0  0  0  0  0
  -16.7364  -39.0806   -8.1826 C   0  0  2  0  0  0  0  0  0  0  0  0
  -16.6228  -37.6908   -8.2296 O   0  0  0  0  0  0  0  0  0  0  0  0
  -18.0170  -39.3842   -7.3647 C   0  0  0  0  0  0  0  0  0  0  0  0
  -18.2712  -40.7818   -7.3153 N   0  0  0  0  0  0  0  0  0  0  0  0
  -19.6314  -41.1267   -6.9662 C   0  0  0  0  0  0  0  0  0  0  0  0
  -19.7152  -42.0990   -5.7913 C   0  0  0  0  0  0  0  0  0  0  0  0
  -20.0810  -42.5240   -7.1974 C   0  0  0  0  0  0  0  0  0  0  0  0
  -20.6886  -40.1164   -7.0910 C   0  0  0  0  0  0  0  0  0  0  0  0
  -21.6735  -39.9554   -6.1322 C   0  0  0  0  0  0  0  0  0  0  0  0
  -22.6750  -39.0237   -6.2204 C   0  0  0  0  0  0  0  0  0  0  0  0
  -22.7005  -38.2029   -7.3258 C   0  0  0  0  0  0  0  0  0  0  0  0
  -21.7627  -38.3011   -8.3151 C   0  0  0  0  0  0  0  0  0  0  0  0
  -20.7598  -39.2726   -8.1737 C   0  0  0  0  0  0  0  0  0  0  0  0
  -23.7153  -38.8771   -5.1748 C   0  0  0  0  0  0  0  0  0  0  0  0
  -24.2917  -40.2069   -4.7582 C   0  0  0  0  0  0  0  0  0  0  0  0
  -23.0396  -38.2696   -3.9562 C   0  0  0  0  0  0  0  0  0  0  0  0
  -24.8182  -37.9194   -5.5849 C   0  0  0  0  0  0  0  0  0  0  0  0
  1  2  1  0
  2  3  1  0
  2  4  1  0
  4  5  2  0
  4  6  1  0
  6  7  2  0
  7  8  1  0
  8  9  2  0
  9 10  1  0
 10 11  2  0
 10 12  1  0
 12 13  2  0
 12 14  1  0
 14 15  1  0
 15 16  1  6
 16 17  1  0
 17 18  2  0
 18 19  1  0
 19 20  1  0
 20 21  1  0
 21 22  1  0
 22 23  2  0
 23 24  1  0
 24 25  1  0
 19 26  2  0
 26 27  1  0
 26 28  1  0
 28 29  2  0
 15 30  1  0
 30 31  1  1
 30 32  1  0
 32 33  1  0
 33 34  1  0
 34 35  1  0
 35 36  1  0
 34 37  1  0
 37 38  2  0
 38 39  1  0
 39 40  2  0
 40 41  1  0
 41 42  2  0
 39 43  1  0
 43 44  1  0
 43 45  1  0
 43 46  1  0
 11  6  1  0
 25  8  1  0
 29 17  1  0
 36 34  1  0
 42 37  1  0
M  END
$$$$
