
     RDKit          3D

 46 50  0  0  0  0  0  0  0  0999 V2000
  -20.4603  -46.4521   -8.8637 C   0  0  0  0  0  0  0  0  0  0  0  0
  -19.4185  -47.0989   -8.0941 N   0  0  0  0  0  0  0  0  0  0  0  0
  -19.5806  -48.4740   -7.6788 C   0  0  0  0  0  0  0  0  0  0  0  0
  -18.2484  -46.4034   -7.7453 C   0  0  0  0  0  0  0  0  0  0  0  0
  -17.4038  -46.9389   -6.9942 O   0  0  0  0  0  0  0  0  0  0  0  0
  -17.9642  -45.0490   -8.2302 C   0  0  0  0  0  0  0  0  0  0  0  0
  -16.9075  -44.7685   -9.0422 C   0  0  0  0  0  0  0  0  0  0  0  0
  -16.6116  -43.4649   -9.5317 C   0  0  0  0  0  0  0  0  0  0  0  0
  -17.4399  -42.4273   -9.1628 C   0  0  0  0  0  0  0  0  0  0  0  0
  -18.5278  -42.6418   -8.3420 C   0  0  0  0  0  0  0  0  0  0  0  0
  -18.7438  -43.9834   -7.9025 C   0  0  0  0  0  0  0  0  0  0  0  0
  -19.5489  -41.7325   -7.8067 C   0  0  0  0  0  0  0  0  0  0  0  0
  -20.7712  -42.2597   -7.6727 O   0  0  0  0  0  0  0  0  0  0  0  0
  -19.6027  -40.4025   -7.3721 N   0  0  0  0  0  0  0  0  0  0  0  0
  -19.2747  -39.1625   -8.0817 C   0  0  1  0  0  0  0  0  0  0  0  0
  -18.0818  -38.5239   -7.4633 C   0  0  0  0  0  0  0  0  0  0  0  0
  -17.0116  -38.0627   -8.3923 C   0  0  0  0  0  0  0  0  0  0  0  0
  -15.9452  -38.7208   -8.9293 C   0  0  0  0  0  0  0  0  0  0  0  0
  -15.0889  -38.0216   -9.7656 C   0  0  0  0  0  0  0  0  0  0  0  0
  -13.9647  -38.4452  -10.4181 O   0  0  0  0  0  0  0  0  0  0  0  0
  -13.1751  -39.4002  -10.8874 C   0  0  0  0  0  0  0  0  0  0  0  0
  -13.6098  -40.8554  -10.9222 C   0  0  0  0  0  0  0  0  0  0  0  0
  -14.5847  -41.4525  -11.4997 C   0  0  0  0  0  0  0  0  0  0  0  0
  -15.0703  -42.8842  -11.5766 C   0  0  0  0  0  0  0  0  0  0  0  0
  -15.4400  -43.5194  -10.3424 N   0  0  0  0  0  0  0  0  0  0  0  0
  -15.3429  -36.6532  -10.0385 C   0  0  0  0  0  0  0  0  0  0  0  0
  -14.5093  -35.9128  -10.8651 F   0  0  0  0  0  0  0  0  0  0  0  0
  -16.4053  -35.9618   -9.5164 C   0  0  0  0  0  0  0  0  0  0  0  0
  -17.2207  -36.6934   -8.6979 C   0  0  0  0  0  0  0  0  0  0  0  0
  -19.3960  -39.2217   -9.5488 C   0  0  2  0  0  0  0  0  0  0  0  0
  -18.9009  -38.0512  -10.1245 O   0  0  0  0  0  0  0  0  0  0  0  0
  -20.9161  -39.2438   -9.8486 C   0  0  0  0  0  0  0  0  0  0  0  0
  -21.6164  -40.0090   -8.8769 N   0  0  0  0  0  0  0  0  0  0  0  0
  -21.5023  -39.5037   -7.5269 C   0  0  0  0  0  0  0  0  0  0  0  0
  -21.2657  -37.9957   -7.4747 C   0  0  0  0  0  0  0  0  0  0  0  0
  -20.1840  -38.9800   -7.0841 C   0  0  0  0  0  0  0  0  0  0  0  0
  -22.3110  -40.1036   -6.4591 C   0  0  0  0  0  0  0  0  0  0  0  0
  -21.7518  -40.5705   -5.2824 C   0  0  0  0  0  0  0  0  0  0  0  0
  -22.4786  -41.1374   -4.2681 C   0  0  0  0  0  0  0  0  0  0  0  0
  -23.8415  -41.2476   -4.4311 C   0  0  0  0  0  0  0  0  0  0  0  0
  -24.4670  -40.8097   -5.5646 C   0  0  0  0  0  0  0  0  0  0  0  0
  -23.6743  -40.2374   -6.5714 C   0  0  0  0  0  0  0  0  0  0  0  0
  -21.8481  -41.6277   -3.0194 C   0  0  0  0  0  0  0  0  0  0  0  0
  -22.4280  -40.9668   -1.7941 C   0  0  0  0  0  0  0  0  0  0  0  0
  -22.1488  -43.1146   -2.9225 C   0  0  0  0  0  0  0  0  0  0  0  0
  -20.3375  -41.4885   -3.0396 C   0  0  0  0  0  0  0  0  0  0  0  0
  1  2  1  0
  2  3  1  0
  2  4  1  0
  4  5  2  0
  4  6  1  0
  6  7  2  0
  7  8  1  0
  8  9  2  0
  9 10  1  0
 10 11  2  0
 10 12  1  0
 12 13  2  0
 12 14  1  0
 14 15  1  0
 15 16  1  6
 16 17  1  0
 17 18  2  0
 18 19  1  0
 19 20  1  0
 20 21  1  0
 21 22  1  0
 22 23  2  0
 23 24  1  0
 24 25  1  0
 19 26  2  0
 26 27  1  0
 26 28  1  0
 28 29  2  0
 15 30  1  0
 30 31  1  6
 30 32  1  0
 32 33  1  0
 33 34  1  0
 34 35  1  0
 35 36  1  0
 34 37  1  0
 37 38  2  0
 38 39  1  0
 39 40  2  0
 40 41  1  0
 41 42  2  0
 39 43  1  0
 43 44  1  0
 43 45  1  0
 43 46  1  0
 11  6  1  0
 25  8  1  0
 29 17  1  0
 36 34  1  0
 42 37  1  0
M  END
$$$$
