
     RDKit          3D

 46 50  0  0  0  0  0  0  0  0999 V2000
  -19.6856  -45.8924   -7.6950 C   0  0  0  0  0  0  0  0  0  0  0  0
  -20.9805  -45.6399   -8.2910 N   0  0  0  0  0  0  0  0  0  0  0  0
  -21.9713  -46.6918   -8.3292 C   0  0  0  0  0  0  0  0  0  0  0  0
  -21.2862  -44.3805   -8.8341 C   0  0  0  0  0  0  0  0  0  0  0  0
  -22.4627  -44.1104   -9.1618 O   0  0  0  0  0  0  0  0  0  0  0  0
  -20.2688  -43.3449   -9.0406 C   0  0  0  0  0  0  0  0  0  0  0  0
  -20.0281  -42.7875  -10.2597 C   0  0  0  0  0  0  0  0  0  0  0  0
  -19.0512  -41.7772  -10.4873 C   0  0  0  0  0  0  0  0  0  0  0  0
  -18.3056  -41.3388   -9.4146 C   0  0  0  0  0  0  0  0  0  0  0  0
  -18.4980  -41.8616   -8.1525 C   0  0  0  0  0  0  0  0  0  0  0  0
  -19.5012  -42.8698   -8.0229 C   0  0  0  0  0  0  0  0  0  0  0  0
  -17.8529  -41.5801   -6.8638 C   0  0  0  0  0  0  0  0  0  0  0  0
  -18.6495  -41.6716   -5.7929 O   0  0  0  0  0  0  0  0  0  0  0  0
  -16.5721  -41.2286   -6.4201 N   0  0  0  0  0  0  0  0  0  0  0  0
  -15.7328  -40.0793   -6.7711 C   0  0  1  0  0  0  0  0  0  0  0  0
  -14.5272  -40.5383   -7.5120 C   0  0  0  0  0  0  0  0  0  0  0  0
  -14.1818  -39.7940   -8.7561 C   0  0  0  0  0  0  0  0  0  0  0  0
  -14.6025  -39.9539  -10.0431 C   0  0  0  0  0  0  0  0  0  0  0  0
  -14.0905  -39.1098  -11.0162 C   0  0  0  0  0  0  0  0  0  0  0  0
  -14.3459  -39.0667  -12.3587 O   0  0  0  0  0  0  0  0  0  0  0  0
  -15.0791  -39.3705  -13.4197 C   0  0  0  0  0  0  0  0  0  0  0  0
  -16.4567  -39.9973  -13.2899 C   0  0  0  0  0  0  0  0  0  0  0  0
  -17.5361  -39.6024  -12.7246 C   0  0  0  0  0  0  0  0  0  0  0  0
  -18.9296  -40.1703  -12.5603 C   0  0  0  0  0  0  0  0  0  0  0  0
  -19.0508  -41.4233  -11.8685 N   0  0  0  0  0  0  0  0  0  0  0  0
  -13.1521  -38.1113  -10.6507 C   0  0  0  0  0  0  0  0  0  0  0  0
  -12.6093  -37.2483  -11.5925 F   0  0  0  0  0  0  0  0  0  0  0  0
  -12.7087  -37.9227   -9.3673 C   0  0  0  0  0  0  0  0  0  0  0  0
  -13.2415  -38.7789   -8.4437 C   0  0  0  0  0  0  0  0  0  0  0  0
  -16.4590  -38.8802   -7.2247 C   0  0  2  0  0  0  0  0  0  0  0  0
  -15.7916  -37.7251   -6.8163 O   0  0  0  0  0  0  0  0  0  0  0  0
  -17.8110  -38.8910   -6.4678 C   0  0  0  0  0  0  0  0  0  0  0  0
  -18.3224  -40.2125   -6.3562 N   0  0  0  0  0  0  0  0  0  0  0  0
  -19.7546  -40.2820   -6.1696 C   0  0  0  0  0  0  0  0  0  0  0  0
  -20.2923  -39.1673   -5.2746 C   0  0  0  0  0  0  0  0  0  0  0  0
  -20.2695  -40.6092   -4.8147 C   0  0  0  0  0  0  0  0  0  0  0  0
  -20.6065  -40.7399   -7.2736 C   0  0  0  0  0  0  0  0  0  0  0  0
  -21.8185  -40.1407   -7.5690 C   0  0  0  0  0  0  0  0  0  0  0  0
  -22.6375  -40.5457   -8.5908 C   0  0  0  0  0  0  0  0  0  0  0  0
  -22.2294  -41.6084   -9.3656 C   0  0  0  0  0  0  0  0  0  0  0  0
  -21.0456  -42.2518   -9.1360 C   0  0  0  0  0  0  0  0  0  0  0  0
  -20.2462  -41.7956   -8.0766 C   0  0  0  0  0  0  0  0  0  0  0  0
  -23.9305  -39.8815   -8.8808 C   0  0  0  0  0  0  0  0  0  0  0  0
  -24.0565  -38.5540   -8.1762 C   0  0  0  0  0  0  0  0  0  0  0  0
  -23.9667  -39.6107  -10.3761 C   0  0  0  0  0  0  0  0  0  0  0  0
  -25.1207  -40.7691   -8.5692 C   0  0  0  0  0  0  0  0  0  0  0  0
  1  2  1  0
  2  3  1  0
  2  4  1  0
  4  5  2  0
  4  6  1  0
  6  7  2  0
  7  8  1  0
  8  9  2  0
  9 10  1  0
 10 11  2  0
 10 12  1  0
 12 13  2  0
 12 14  1  0
 14 15  1  0
 15 16  1  6
 16 17  1  0
 17 18  2  0
 18 19  1  0
 19 20  1  0
 20 21  1  0
 21 22  1  0
 22 23  2  0
 23 24  1  0
 24 25  1  0
 19 26  2  0
 26 27  1  0
 26 28  1  0
 28 29  2  0
 15 30  1  0
 30 31  1  1
 30 32  1  0
 32 33  1  0
 33 34  1  0
 34 35  1  0
 35 36  1  0
 34 37  1  0
 37 38  2  0
 38 39  1  0
 39 40  2  0
 40 41  1  0
 41 42  2  0
 39 43  1  0
 43 44  1  0
 43 45  1  0
 43 46  1  0
 11  6  1  0
 25  8  1  0
 29 17  1  0
 36 34  1  0
 42 37  1  0
M  END
$$$$
