
     RDKit          3D

 44 49  0  0  0  0  0  0  0  0999 V2000
  -20.0160  -43.0432   -0.0668 C   0  0  0  0  0  0  0  0  0  0  0  0
  -20.6390  -42.0039   -0.9595 C   0  0  0  0  0  0  0  0  0  0  0  0
  -19.5951  -41.5542   -1.9663 C   0  0  0  0  0  0  0  0  0  0  0  0
  -21.8553  -42.5404   -1.6193 C   0  0  0  0  0  0  0  0  0  0  0  0
  -21.8811  -42.7328   -2.9761 C   0  0  0  0  0  0  0  0  0  0  0  0
  -22.9994  -43.2292   -3.6448 C   0  0  0  0  0  0  0  0  0  0  0  0
  -24.1217  -43.5417   -2.9361 C   0  0  0  0  0  0  0  0  0  0  0  0
  -24.1229  -43.3565   -1.5585 C   0  0  0  0  0  0  0  0  0  0  0  0
  -23.0021  -42.8639   -0.9268 C   0  0  0  0  0  0  0  0  0  0  0  0
  -22.9194  -43.4008   -5.1153 C   0  0  0  0  0  0  0  0  0  0  0  0
  -24.1346  -43.1164   -5.9573 C   0  0  0  0  0  0  0  0  0  0  0  0
  -23.7069  -44.5510   -5.6365 C   0  0  0  0  0  0  0  0  0  0  0  0
  -21.6115  -43.1131   -5.7058 N   0  0  0  0  0  0  0  0  0  0  0  0
  -20.8986  -42.1192   -4.9291 C   0  0  0  0  0  0  0  0  0  0  0  0
  -20.9969  -40.7500   -5.5553 C   0  0  1  0  0  0  0  0  0  0  0  0
  -19.9306  -40.0041   -5.0300 O   0  0  0  0  0  0  0  0  0  0  0  0
  -20.7898  -40.7912   -7.0475 C   0  0  2  0  0  0  0  0  0  0  0  0
  -21.7240  -39.8165   -7.7251 C   0  0  0  0  0  0  0  0  0  0  0  0
  -21.0072  -38.6099   -8.2849 C   0  0  0  0  0  0  0  0  0  0  0  0
  -20.2414  -38.4880   -9.4062 C   0  0  0  0  0  0  0  0  0  0  0  0
  -19.6667  -37.2569   -9.6956 C   0  0  0  0  0  0  0  0  0  0  0  0
  -19.8922  -36.1744   -8.8232 C   0  0  0  0  0  0  0  0  0  0  0  0
  -20.6556  -36.2559   -7.6863 C   0  0  0  0  0  0  0  0  0  0  0  0
  -21.1995  -37.4895   -7.4462 C   0  0  0  0  0  0  0  0  0  0  0  0
  -18.8658  -36.8862  -10.7457 O   0  0  0  0  0  0  0  0  0  0  0  0
  -18.8109  -36.9637  -12.1154 C   0  0  0  0  0  0  0  0  0  0  0  0
  -17.5058  -37.4650  -12.6419 C   0  0  0  0  0  0  0  0  0  0  0  0
  -16.4500  -36.5522  -12.6994 C   0  0  0  0  0  0  0  0  0  0  0  0
  -15.2054  -36.8701  -13.1572 C   0  0  0  0  0  0  0  0  0  0  0  0
  -14.9798  -38.1510  -13.5824 C   0  0  0  0  0  0  0  0  0  0  0  0
  -16.0010  -39.0734  -13.5377 C   0  0  0  0  0  0  0  0  0  0  0  0
  -17.2851  -38.7580  -13.0688 C   0  0  0  0  0  0  0  0  0  0  0  0
  -18.2929  -39.8035  -13.0635 C   0  0  0  0  0  0  0  0  0  0  0  0
  -17.9618  -41.0401  -12.5411 O   0  0  0  0  0  0  0  0  0  0  0  0
  -18.0083  -41.5832  -11.2610 C   0  0  0  0  0  0  0  0  0  0  0  0
  -19.1003  -41.9150  -10.4840 C   0  0  0  0  0  0  0  0  0  0  0  0
  -18.8366  -42.4334   -9.2412 C   0  0  0  0  0  0  0  0  0  0  0  0
  -17.4813  -42.6037   -8.8315 C   0  0  0  0  0  0  0  0  0  0  0  0
  -16.4120  -42.2699   -9.6211 C   0  0  0  0  0  0  0  0  0  0  0  0
  -15.0296  -42.4768   -9.1262 C   0  0  0  0  0  0  0  0  0  0  0  0
  -16.7129  -41.7716  -10.8054 N   0  0  0  0  0  0  0  0  0  0  0  0
  -19.7304  -42.8424   -8.1403 C   0  0  0  0  0  0  0  0  0  0  0  0
  -19.4665  -44.0071   -7.6095 O   0  0  0  0  0  0  0  0  0  0  0  0
  -20.8487  -42.1255   -7.5754 N   0  0  0  0  0  0  0  0  0  0  0  0
  1  2  1  0
  2  3  1  0
  2  4  1  0
  4  5  2  0
  5  6  1  0
  6  7  2  0
  7  8  1  0
  8  9  2  0
  6 10  1  0
 10 11  1  0
 11 12  1  0
 10 13  1  0
 13 14  1  0
 14 15  1  0
 15 16  1  1
 15 17  1  0
 17 18  1  6
 18 19  1  0
 19 20  2  0
 20 21  1  0
 21 22  2  0
 22 23  1  0
 23 24  2  0
 21 25  1  0
 25 26  1  0
 26 27  1  0
 27 28  2  0
 28 29  1  0
 29 30  2  0
 30 31  1  0
 31 32  2  0
 32 33  1  0
 33 34  1  0
 34 35  1  0
 35 36  2  0
 36 37  1  0
 37 38  2  0
 38 39  1  0
 39 40  1  0
 39 41  2  0
 37 42  1  0
 42 43  2  0
 42 44  1  0
  9  4  1  0
 12 10  1  0
 24 19  1  0
 32 27  1  0
 41 35  1  0
 44 17  1  0
M  END
$$$$
