
     RDKit          3D

 44 49  0  0  0  0  0  0  0  0999 V2000
  -24.6961  -43.9756   -6.3317 C   0  0  0  0  0  0  0  0  0  0  0  0
  -23.3322  -43.4986   -5.9108 C   0  0  0  0  0  0  0  0  0  0  0  0
  -22.3048  -44.5037   -6.4002 C   0  0  0  0  0  0  0  0  0  0  0  0
  -23.0700  -42.1342   -6.4325 C   0  0  0  0  0  0  0  0  0  0  0  0
  -21.9632  -41.4362   -6.0246 C   0  0  0  0  0  0  0  0  0  0  0  0
  -21.6737  -40.1506   -6.4803 C   0  0  0  0  0  0  0  0  0  0  0  0
  -22.5147  -39.5479   -7.3686 C   0  0  0  0  0  0  0  0  0  0  0  0
  -23.6447  -40.2332   -7.7992 C   0  0  0  0  0  0  0  0  0  0  0  0
  -23.9034  -41.5024   -7.3301 C   0  0  0  0  0  0  0  0  0  0  0  0
  -20.4480  -39.4863   -5.9761 C   0  0  0  0  0  0  0  0  0  0  0  0
  -20.5775  -38.2782   -5.0869 C   0  0  0  0  0  0  0  0  0  0  0  0
  -20.1997  -38.1420   -6.5643 C   0  0  0  0  0  0  0  0  0  0  0  0
  -19.3103  -40.3756   -5.7382 N   0  0  0  0  0  0  0  0  0  0  0  0
  -18.0678  -39.6311   -5.7035 C   0  0  0  0  0  0  0  0  0  0  0  0
  -18.0537  -38.5262   -6.7310 C   0  0  1  0  0  0  0  0  0  0  0  0
  -16.9129  -37.7558   -6.4587 O   0  0  0  0  0  0  0  0  0  0  0  0
  -17.8828  -39.0549   -8.1319 C   0  0  2  0  0  0  0  0  0  0  0  0
  -18.6166  -38.1688   -9.1109 C   0  0  0  0  0  0  0  0  0  0  0  0
  -17.6843  -37.3498   -9.9730 C   0  0  0  0  0  0  0  0  0  0  0  0
  -16.9276  -37.7223  -11.0441 C   0  0  0  0  0  0  0  0  0  0  0  0
  -16.1255  -36.7713  -11.6621 C   0  0  0  0  0  0  0  0  0  0  0  0
  -16.1185  -35.4540  -11.1639 C   0  0  0  0  0  0  0  0  0  0  0  0
  -16.8647  -35.0395  -10.0900 C   0  0  0  0  0  0  0  0  0  0  0  0
  -17.6378  -36.0136   -9.5168 C   0  0  0  0  0  0  0  0  0  0  0  0
  -15.2840  -36.8969  -12.7381 O   0  0  0  0  0  0  0  0  0  0  0  0
  -15.2674  -37.3932  -14.0181 C   0  0  0  0  0  0  0  0  0  0  0  0
  -14.0958  -38.2722  -14.3118 C   0  0  0  0  0  0  0  0  0  0  0  0
  -12.8814  -37.6414  -14.5922 C   0  0  0  0  0  0  0  0  0  0  0  0
  -11.7317  -38.3169  -14.8779 C   0  0  0  0  0  0  0  0  0  0  0  0
  -11.7707  -39.6847  -14.8904 C   0  0  0  0  0  0  0  0  0  0  0  0
  -12.9533  -40.3350  -14.6179 C   0  0  0  0  0  0  0  0  0  0  0  0
  -14.1420  -39.6508  -14.3225 C   0  0  0  0  0  0  0  0  0  0  0  0
  -15.3365  -40.4305  -14.0502 C   0  0  0  0  0  0  0  0  0  0  0  0
  -15.2481  -41.4915  -13.1679 O   0  0  0  0  0  0  0  0  0  0  0  0
  -15.3806  -41.6032  -11.7874 C   0  0  0  0  0  0  0  0  0  0  0  0
  -16.5041  -41.4675  -10.9964 C   0  0  0  0  0  0  0  0  0  0  0  0
  -16.3282  -41.6275   -9.6450 C   0  0  0  0  0  0  0  0  0  0  0  0
  -15.0271  -41.9249   -9.1430 C   0  0  0  0  0  0  0  0  0  0  0  0
  -13.9256  -42.0582   -9.9476 C   0  0  0  0  0  0  0  0  0  0  0  0
  -12.6036  -42.3691   -9.3522 C   0  0  0  0  0  0  0  0  0  0  0  0
  -14.1409  -41.8920  -11.2389 N   0  0  0  0  0  0  0  0  0  0  0  0
  -17.2676  -41.5044   -8.5133 C   0  0  0  0  0  0  0  0  0  0  0  0
  -17.2307  -42.4826   -7.6476 O   0  0  0  0  0  0  0  0  0  0  0  0
  -18.2129  -40.4486   -8.2391 N   0  0  0  0  0  0  0  0  0  0  0  0
  1  2  1  0
  2  3  1  0
  2  4  1  0
  4  5  2  0
  5  6  1  0
  6  7  2  0
  7  8  1  0
  8  9  2  0
  6 10  1  0
 10 11  1  0
 11 12  1  0
 10 13  1  0
 13 14  1  0
 14 15  1  0
 15 16  1  1
 15 17  1  0
 17 18  1  6
 18 19  1  0
 19 20  2  0
 20 21  1  0
 21 22  2  0
 22 23  1  0
 23 24  2  0
 21 25  1  0
 25 26  1  0
 26 27  1  0
 27 28  2  0
 28 29  1  0
 29 30  2  0
 30 31  1  0
 31 32  2  0
 32 33  1  0
 33 34  1  0
 34 35  1  0
 35 36  2  0
 36 37  1  0
 37 38  2  0
 38 39  1  0
 39 40  1  0
 39 41  2  0
 37 42  1  0
 42 43  2  0
 42 44  1  0
  9  4  1  0
 12 10  1  0
 24 19  1  0
 32 27  1  0
 41 35  1  0
 44 17  1  0
M  END
$$$$
