
     RDKit          3D

 44 49  0  0  0  0  0  0  0  0999 V2000
  -11.4448  -42.8202   -8.5863 C   0  0  0  0  0  0  0  0  0  0  0  0
  -11.7925  -43.3457   -9.9531 C   0  0  0  0  0  0  0  0  0  0  0  0
  -12.6989  -44.5518   -9.7826 C   0  0  0  0  0  0  0  0  0  0  0  0
  -12.4242  -42.2855  -10.7773 C   0  0  0  0  0  0  0  0  0  0  0  0
  -12.5902  -41.0216  -10.2739 C   0  0  0  0  0  0  0  0  0  0  0  0
  -13.1816  -39.9918  -11.0047 C   0  0  0  0  0  0  0  0  0  0  0  0
  -13.6180  -40.2338  -12.2737 C   0  0  0  0  0  0  0  0  0  0  0  0
  -13.4620  -41.5070  -12.8092 C   0  0  0  0  0  0  0  0  0  0  0  0
  -12.8740  -42.5035  -12.0617 C   0  0  0  0  0  0  0  0  0  0  0  0
  -13.3102  -38.6607  -10.3646 C   0  0  0  0  0  0  0  0  0  0  0  0
  -12.1223  -37.7360  -10.3431 C   0  0  0  0  0  0  0  0  0  0  0  0
  -12.5433  -38.5195   -9.0970 C   0  0  0  0  0  0  0  0  0  0  0  0
  -14.6358  -38.0481  -10.4617 N   0  0  0  0  0  0  0  0  0  0  0  0
  -15.6713  -38.9895  -10.0865 C   0  0  0  0  0  0  0  0  0  0  0  0
  -16.9395  -38.2843   -9.6730 C   0  0  1  0  0  0  0  0  0  0  0  0
  -17.8552  -38.4858  -10.7171 O   0  0  0  0  0  0  0  0  0  0  0  0
  -17.5572  -38.8996   -8.4437 C   0  0  2  0  0  0  0  0  0  0  0  0
  -18.2866  -37.8425   -7.6485 C   0  0  0  0  0  0  0  0  0  0  0  0
  -19.7888  -37.9896   -7.7171 C   0  0  0  0  0  0  0  0  0  0  0  0
  -20.6119  -38.8761   -7.0884 C   0  0  0  0  0  0  0  0  0  0  0  0
  -21.9771  -38.8174   -7.3382 C   0  0  0  0  0  0  0  0  0  0  0  0
  -22.4682  -37.8459   -8.2319 C   0  0  0  0  0  0  0  0  0  0  0  0
  -21.6740  -36.9368   -8.8837 C   0  0  0  0  0  0  0  0  0  0  0  0
  -20.3373  -37.0360   -8.6034 C   0  0  0  0  0  0  0  0  0  0  0  0
  -22.9957  -39.5888   -6.8388 O   0  0  0  0  0  0  0  0  0  0  0  0
  -23.4782  -40.0626   -5.6439 C   0  0  0  0  0  0  0  0  0  0  0  0
  -23.7508  -41.5313   -5.6405 C   0  0  0  0  0  0  0  0  0  0  0  0
  -24.9402  -41.9592   -6.2352 C   0  0  0  0  0  0  0  0  0  0  0  0
  -25.3181  -43.2677   -6.3041 C   0  0  0  0  0  0  0  0  0  0  0  0
  -24.4878  -44.2106   -5.7618 C   0  0  0  0  0  0  0  0  0  0  0  0
  -23.3083  -43.8195   -5.1688 C   0  0  0  0  0  0  0  0  0  0  0  0
  -22.9092  -42.4767   -5.0921 C   0  0  0  0  0  0  0  0  0  0  0  0
  -21.6462  -42.1690   -4.4447 C   0  0  0  0  0  0  0  0  0  0  0  0
  -20.5284  -42.9064   -4.7890 O   0  0  0  0  0  0  0  0  0  0  0  0
  -19.5608  -42.7735   -5.7799 C   0  0  0  0  0  0  0  0  0  0  0  0
  -18.5703  -41.8222   -5.9220 C   0  0  0  0  0  0  0  0  0  0  0  0
  -17.7548  -41.9419   -7.0190 C   0  0  0  0  0  0  0  0  0  0  0  0
  -17.9650  -43.0205   -7.9278 C   0  0  0  0  0  0  0  0  0  0  0  0
  -18.9534  -43.9559   -7.7653 C   0  0  0  0  0  0  0  0  0  0  0  0
  -19.1102  -45.0507   -8.7531 C   0  0  0  0  0  0  0  0  0  0  0  0
  -19.7154  -43.7990   -6.6994 N   0  0  0  0  0  0  0  0  0  0  0  0
  -16.6494  -41.0990   -7.5149 C   0  0  0  0  0  0  0  0  0  0  0  0
  -15.5637  -41.7431   -7.8526 O   0  0  0  0  0  0  0  0  0  0  0  0
  -16.6141  -39.6652   -7.6775 N   0  0  0  0  0  0  0  0  0  0  0  0
  1  2  1  0
  2  3  1  0
  2  4  1  0
  4  5  2  0
  5  6  1  0
  6  7  2  0
  7  8  1  0
  8  9  2  0
  6 10  1  0
 10 11  1  0
 11 12  1  0
 10 13  1  0
 13 14  1  0
 14 15  1  0
 15 16  1  6
 15 17  1  0
 17 18  1  1
 18 19  1  0
 19 20  2  0
 20 21  1  0
 21 22  2  0
 22 23  1  0
 23 24  2  0
 21 25  1  0
 25 26  1  0
 26 27  1  0
 27 28  2  0
 28 29  1  0
 29 30  2  0
 30 31  1  0
 31 32  2  0
 32 33  1  0
 33 34  1  0
 34 35  1  0
 35 36  2  0
 36 37  1  0
 37 38  2  0
 38 39  1  0
 39 40  1  0
 39 41  2  0
 37 42  1  0
 42 43  2  0
 42 44  1  0
  9  4  1  0
 12 10  1  0
 24 19  1  0
 32 27  1  0
 41 35  1  0
 44 17  1  0
M  END
$$$$
