
     RDKit          3D

 44 49  0  0  0  0  0  0  0  0999 V2000
  -18.5056  -44.2581   -2.7586 C   0  0  0  0  0  0  0  0  0  0  0  0
  -18.6253  -42.7959   -2.4229 C   0  0  0  0  0  0  0  0  0  0  0  0
  -17.7512  -42.0134   -3.3868 C   0  0  0  0  0  0  0  0  0  0  0  0
  -20.0429  -42.3600   -2.4762 C   0  0  0  0  0  0  0  0  0  0  0  0
  -20.6024  -41.9622   -3.6625 C   0  0  0  0  0  0  0  0  0  0  0  0
  -21.9272  -41.5394   -3.7657 C   0  0  0  0  0  0  0  0  0  0  0  0
  -22.7128  -41.5147   -2.6514 C   0  0  0  0  0  0  0  0  0  0  0  0
  -22.1708  -41.9131   -1.4350 C   0  0  0  0  0  0  0  0  0  0  0  0
  -20.8582  -42.3254   -1.3656 C   0  0  0  0  0  0  0  0  0  0  0  0
  -22.4324  -41.1323   -5.0987 C   0  0  0  0  0  0  0  0  0  0  0  0
  -23.7553  -40.4204   -5.1991 C   0  0  0  0  0  0  0  0  0  0  0  0
  -23.6197  -41.9022   -5.5595 C   0  0  0  0  0  0  0  0  0  0  0  0
  -21.4010  -40.7722   -6.0726 N   0  0  0  0  0  0  0  0  0  0  0  0
  -20.1727  -40.3853   -5.4086 C   0  0  0  0  0  0  0  0  0  0  0  0
  -19.5556  -39.1662   -6.0488 C   0  0  1  0  0  0  0  0  0  0  0  0
  -18.1732  -39.2698   -5.8312 O   0  0  0  0  0  0  0  0  0  0  0  0
  -19.7487  -39.1499   -7.5434 C   0  0  2  0  0  0  0  0  0  0  0  0
  -20.1688  -37.7707   -7.9943 C   0  0  0  0  0  0  0  0  0  0  0  0
  -19.0813  -37.0449   -8.7518 C   0  0  0  0  0  0  0  0  0  0  0  0
  -18.6444  -37.2121  -10.0323 C   0  0  0  0  0  0  0  0  0  0  0  0
  -17.5993  -36.4215  -10.4932 C   0  0  0  0  0  0  0  0  0  0  0  0
  -17.0241  -35.4734   -9.6250 C   0  0  0  0  0  0  0  0  0  0  0  0
  -17.4346  -35.2745   -8.3312 C   0  0  0  0  0  0  0  0  0  0  0  0
  -18.4669  -36.0777   -7.9256 C   0  0  0  0  0  0  0  0  0  0  0  0
  -16.9882  -36.4014  -11.7211 O   0  0  0  0  0  0  0  0  0  0  0  0
  -17.2973  -36.3517  -13.0579 C   0  0  0  0  0  0  0  0  0  0  0  0
  -16.6025  -37.3881  -13.8792 C   0  0  0  0  0  0  0  0  0  0  0  0
  -15.2728  -37.1385  -14.2268 C   0  0  0  0  0  0  0  0  0  0  0  0
  -14.5170  -37.9947  -14.9720 C   0  0  0  0  0  0  0  0  0  0  0  0
  -15.0923  -39.1596  -15.4015 C   0  0  0  0  0  0  0  0  0  0  0  0
  -16.4015  -39.4337  -15.0748 C   0  0  0  0  0  0  0  0  0  0  0  0
  -17.1885  -38.5607  -14.3088 C   0  0  0  0  0  0  0  0  0  0  0  0
  -18.5595  -38.9426  -14.0199 C   0  0  0  0  0  0  0  0  0  0  0  0
  -18.8076  -40.2228  -13.5603 O   0  0  0  0  0  0  0  0  0  0  0  0
  -18.8337  -40.7979  -12.2936 C   0  0  0  0  0  0  0  0  0  0  0  0
  -19.7271  -40.6081  -11.2582 C   0  0  0  0  0  0  0  0  0  0  0  0
  -19.4934  -41.3159  -10.1062 C   0  0  0  0  0  0  0  0  0  0  0  0
  -18.3710  -42.1933  -10.0442 C   0  0  0  0  0  0  0  0  0  0  0  0
  -17.4981  -42.3686  -11.0861 C   0  0  0  0  0  0  0  0  0  0  0  0
  -16.3527  -43.3000  -10.9473 C   0  0  0  0  0  0  0  0  0  0  0  0
  -17.7595  -41.6652  -12.1716 N   0  0  0  0  0  0  0  0  0  0  0  0
  -20.1893  -41.3268   -8.8047 C   0  0  0  0  0  0  0  0  0  0  0  0
  -20.4536  -42.5122   -8.3223 O   0  0  0  0  0  0  0  0  0  0  0  0
  -20.6097  -40.2050   -7.9994 N   0  0  0  0  0  0  0  0  0  0  0  0
  1  2  1  0
  2  3  1  0
  2  4  1  0
  4  5  2  0
  5  6  1  0
  6  7  2  0
  7  8  1  0
  8  9  2  0
  6 10  1  0
 10 11  1  0
 11 12  1  0
 10 13  1  0
 13 14  1  0
 14 15  1  0
 15 16  1  6
 15 17  1  0
 17 18  1  1
 18 19  1  0
 19 20  2  0
 20 21  1  0
 21 22  2  0
 22 23  1  0
 23 24  2  0
 21 25  1  0
 25 26  1  0
 26 27  1  0
 27 28  2  0
 28 29  1  0
 29 30  2  0
 30 31  1  0
 31 32  2  0
 32 33  1  0
 33 34  1  0
 34 35  1  0
 35 36  2  0
 36 37  1  0
 37 38  2  0
 38 39  1  0
 39 40  1  0
 39 41  2  0
 37 42  1  0
 42 43  2  0
 42 44  1  0
  9  4  1  0
 12 10  1  0
 24 19  1  0
 32 27  1  0
 41 35  1  0
 44 17  1  0
M  END
$$$$
