
     RDKit          3D

 44 49  0  0  0  0  0  0  0  0999 V2000
  -24.6534  -39.5785   -8.5531 C   0  0  0  0  0  0  0  0  0  0  0  0
  -23.2442  -39.9647   -8.9136 C   0  0  0  0  0  0  0  0  0  0  0  0
  -22.4751  -38.6992   -9.2486 C   0  0  0  0  0  0  0  0  0  0  0  0
  -22.6104  -40.7264   -7.8088 C   0  0  0  0  0  0  0  0  0  0  0  0
  -21.6466  -40.1437   -7.0278 C   0  0  0  0  0  0  0  0  0  0  0  0
  -21.0171  -40.8168   -5.9814 C   0  0  0  0  0  0  0  0  0  0  0  0
  -21.3621  -42.1077   -5.7094 C   0  0  0  0  0  0  0  0  0  0  0  0
  -22.3369  -42.7232   -6.4860 C   0  0  0  0  0  0  0  0  0  0  0  0
  -22.9404  -42.0315   -7.5132 C   0  0  0  0  0  0  0  0  0  0  0  0
  -19.9889  -40.0912   -5.1976 C   0  0  0  0  0  0  0  0  0  0  0  0
  -19.3112  -40.7882   -4.0480 C   0  0  0  0  0  0  0  0  0  0  0  0
  -20.4106  -39.7492   -3.8119 C   0  0  0  0  0  0  0  0  0  0  0  0
  -19.1967  -39.1218   -5.9557 N   0  0  0  0  0  0  0  0  0  0  0  0
  -17.7790  -39.3834   -5.8107 C   0  0  0  0  0  0  0  0  0  0  0  0
  -16.9563  -38.5044   -6.7202 C   0  0  1  0  0  0  0  0  0  0  0  0
  -15.6259  -38.6423   -6.2960 O   0  0  0  0  0  0  0  0  0  0  0  0
  -16.9949  -38.9738   -8.1518 C   0  0  2  0  0  0  0  0  0  0  0  0
  -17.6243  -37.9143   -9.0254 C   0  0  0  0  0  0  0  0  0  0  0  0
  -16.6252  -37.2300   -9.9291 C   0  0  0  0  0  0  0  0  0  0  0  0
  -16.0356  -37.6715  -11.0763 C   0  0  0  0  0  0  0  0  0  0  0  0
  -15.1207  -36.8480  -11.7202 C   0  0  0  0  0  0  0  0  0  0  0  0
  -14.8308  -35.5847  -11.1691 C   0  0  0  0  0  0  0  0  0  0  0  0
  -15.4021  -35.1041  -10.0182 C   0  0  0  0  0  0  0  0  0  0  0  0
  -16.2964  -35.9530   -9.4223 C   0  0  0  0  0  0  0  0  0  0  0  0
  -14.4024  -37.0622  -12.8691 O   0  0  0  0  0  0  0  0  0  0  0  0
  -14.5769  -37.4787  -14.1657 C   0  0  0  0  0  0  0  0  0  0  0  0
  -13.6151  -38.5375  -14.5963 C   0  0  0  0  0  0  0  0  0  0  0  0
  -12.3299  -38.1228  -14.9533 C   0  0  0  0  0  0  0  0  0  0  0  0
  -11.3511  -38.9782  -15.3655 C   0  0  0  0  0  0  0  0  0  0  0  0
  -11.6444  -40.3131  -15.4326 C   0  0  0  0  0  0  0  0  0  0  0  0
  -12.9027  -40.7524  -15.0870 C   0  0  0  0  0  0  0  0  0  0  0  0
  -13.9173  -39.8819  -14.6615 C   0  0  0  0  0  0  0  0  0  0  0  0
  -15.2113  -40.4459  -14.3205 C   0  0  0  0  0  0  0  0  0  0  0  0
  -15.2539  -41.5543  -13.4950 O   0  0  0  0  0  0  0  0  0  0  0  0
  -15.2983  -41.7195  -12.1142 C   0  0  0  0  0  0  0  0  0  0  0  0
  -16.3128  -41.4277  -11.2242 C   0  0  0  0  0  0  0  0  0  0  0  0
  -16.0663  -41.6945   -9.9011 C   0  0  0  0  0  0  0  0  0  0  0  0
  -14.8083  -42.2517   -9.5261 C   0  0  0  0  0  0  0  0  0  0  0  0
  -13.8160  -42.5363  -10.4276 C   0  0  0  0  0  0  0  0  0  0  0  0
  -12.5330  -43.1160   -9.9621 C   0  0  0  0  0  0  0  0  0  0  0  0
  -14.0954  -42.2597  -11.6873 N   0  0  0  0  0  0  0  0  0  0  0  0
  -16.8766  -41.4682   -8.6884 C   0  0  0  0  0  0  0  0  0  0  0  0
  -16.9556  -42.4850   -7.8713 O   0  0  0  0  0  0  0  0  0  0  0  0
  -17.5853  -40.2757   -8.2891 N   0  0  0  0  0  0  0  0  0  0  0  0
  1  2  1  0
  2  3  1  0
  2  4  1  0
  4  5  2  0
  5  6  1  0
  6  7  2  0
  7  8  1  0
  8  9  2  0
  6 10  1  0
 10 11  1  0
 11 12  1  0
 10 13  1  0
 13 14  1  0
 14 15  1  0
 15 16  1  1
 15 17  1  0
 17 18  1  6
 18 19  1  0
 19 20  2  0
 20 21  1  0
 21 22  2  0
 22 23  1  0
 23 24  2  0
 21 25  1  0
 25 26  1  0
 26 27  1  0
 27 28  2  0
 28 29  1  0
 29 30  2  0
 30 31  1  0
 31 32  2  0
 32 33  1  0
 33 34  1  0
 34 35  1  0
 35 36  2  0
 36 37  1  0
 37 38  2  0
 38 39  1  0
 39 40  1  0
 39 41  2  0
 37 42  1  0
 42 43  2  0
 42 44  1  0
  9  4  1  0
 12 10  1  0
 24 19  1  0
 32 27  1  0
 41 35  1  0
 44 17  1  0
M  END
$$$$
