
     RDKit          3D

 44 49  0  0  0  0  0  0  0  0999 V2000
  -11.4615  -37.4922  -14.4860 C   0  0  0  0  0  0  0  0  0  0  0  0
  -11.0123  -37.5958  -13.0534 C   0  0  0  0  0  0  0  0  0  0  0  0
  -10.0466  -36.4578  -12.7741 C   0  0  0  0  0  0  0  0  0  0  0  0
  -12.1782  -37.5757  -12.1355 C   0  0  0  0  0  0  0  0  0  0  0  0
  -12.2723  -38.4836  -11.1131 C   0  0  0  0  0  0  0  0  0  0  0  0
  -13.3483  -38.5105  -10.2267 C   0  0  0  0  0  0  0  0  0  0  0  0
  -14.3570  -37.6037  -10.3675 C   0  0  0  0  0  0  0  0  0  0  0  0
  -14.2870  -36.6713  -11.3960 C   0  0  0  0  0  0  0  0  0  0  0  0
  -13.2107  -36.6707  -12.2558 C   0  0  0  0  0  0  0  0  0  0  0  0
  -13.3492  -39.5341   -9.1542 C   0  0  0  0  0  0  0  0  0  0  0  0
  -12.0377  -40.0039   -8.5833 C   0  0  0  0  0  0  0  0  0  0  0  0
  -12.8240  -40.8601   -9.5795 C   0  0  0  0  0  0  0  0  0  0  0  0
  -14.4968  -39.4853   -8.2473 N   0  0  0  0  0  0  0  0  0  0  0  0
  -15.5321  -38.6147   -8.7666 C   0  0  0  0  0  0  0  0  0  0  0  0
  -16.6038  -38.3512   -7.7376 C   0  0  1  0  0  0  0  0  0  0  0  0
  -17.3767  -37.2943   -8.2424 O   0  0  0  0  0  0  0  0  0  0  0  0
  -17.5396  -39.5218   -7.5791 C   0  0  2  0  0  0  0  0  0  0  0  0
  -18.4801  -39.2775   -6.4224 C   0  0  0  0  0  0  0  0  0  0  0  0
  -19.8976  -39.0024   -6.8674 C   0  0  0  0  0  0  0  0  0  0  0  0
  -20.8546  -39.8595   -7.3233 C   0  0  0  0  0  0  0  0  0  0  0  0
  -22.0917  -39.3480   -7.6944 C   0  0  0  0  0  0  0  0  0  0  0  0
  -22.3187  -37.9620   -7.5886 C   0  0  0  0  0  0  0  0  0  0  0  0
  -21.3831  -37.0672   -7.1349 C   0  0  0  0  0  0  0  0  0  0  0  0
  -20.1815  -37.6212   -6.7819 C   0  0  0  0  0  0  0  0  0  0  0  0
  -23.2004  -39.9945   -8.1787 O   0  0  0  0  0  0  0  0  0  0  0  0
  -23.9988  -41.0778   -7.9062 C   0  0  0  0  0  0  0  0  0  0  0  0
  -24.2418  -41.9627   -9.0849 C   0  0  0  0  0  0  0  0  0  0  0  0
  -25.2052  -41.5453  -10.0063 C   0  0  0  0  0  0  0  0  0  0  0  0
  -25.5303  -42.2520  -11.1264 C   0  0  0  0  0  0  0  0  0  0  0  0
  -24.8780  -43.4321  -11.3592 C   0  0  0  0  0  0  0  0  0  0  0  0
  -23.9231  -43.8698  -10.4690 C   0  0  0  0  0  0  0  0  0  0  0  0
  -23.5802  -43.1514   -9.3138 C   0  0  0  0  0  0  0  0  0  0  0  0
  -22.5599  -43.7003   -8.4383 C   0  0  0  0  0  0  0  0  0  0  0  0
  -21.3808  -44.1552   -8.9991 O   0  0  0  0  0  0  0  0  0  0  0  0
  -20.1716  -43.5438   -9.3151 C   0  0  0  0  0  0  0  0  0  0  0  0
  -19.1945  -43.0398   -8.4799 C   0  0  0  0  0  0  0  0  0  0  0  0
  -18.0974  -42.4795   -9.0842 C   0  0  0  0  0  0  0  0  0  0  0  0
  -18.0242  -42.4544  -10.5081 C   0  0  0  0  0  0  0  0  0  0  0  0
  -19.0054  -42.9636  -11.3182 C   0  0  0  0  0  0  0  0  0  0  0  0
  -18.8583  -42.9018  -12.7924 C   0  0  0  0  0  0  0  0  0  0  0  0
  -20.0429  -43.4885  -10.6940 N   0  0  0  0  0  0  0  0  0  0  0  0
  -16.9074  -41.8081   -8.5261 C   0  0  0  0  0  0  0  0  0  0  0  0
  -15.7621  -42.2015   -9.0173 O   0  0  0  0  0  0  0  0  0  0  0  0
  -16.8457  -40.7776   -7.5171 N   0  0  0  0  0  0  0  0  0  0  0  0
  1  2  1  0
  2  3  1  0
  2  4  1  0
  4  5  2  0
  5  6  1  0
  6  7  2  0
  7  8  1  0
  8  9  2  0
  6 10  1  0
 10 11  1  0
 11 12  1  0
 10 13  1  0
 13 14  1  0
 14 15  1  0
 15 16  1  6
 15 17  1  0
 17 18  1  1
 18 19  1  0
 19 20  2  0
 20 21  1  0
 21 22  2  0
 22 23  1  0
 23 24  2  0
 21 25  1  0
 25 26  1  0
 26 27  1  0
 27 28  2  0
 28 29  1  0
 29 30  2  0
 30 31  1  0
 31 32  2  0
 32 33  1  0
 33 34  1  0
 34 35  1  0
 35 36  2  0
 36 37  1  0
 37 38  2  0
 38 39  1  0
 39 40  1  0
 39 41  2  0
 37 42  1  0
 42 43  2  0
 42 44  1  0
  9  4  1  0
 12 10  1  0
 24 19  1  0
 32 27  1  0
 41 35  1  0
 44 17  1  0
M  END
$$$$
