
     RDKit          3D

 44 49  0  0  0  0  0  0  0  0999 V2000
  -23.7134  -41.0396   -7.2349 C   0  0  0  0  0  0  0  0  0  0  0  0
  -23.2627  -39.6299   -7.5079 C   0  0  0  0  0  0  0  0  0  0  0  0
  -24.2161  -38.6809   -6.8037 C   0  0  0  0  0  0  0  0  0  0  0  0
  -21.8578  -39.4348   -7.0713 C   0  0  0  0  0  0  0  0  0  0  0  0
  -21.0316  -38.5801   -7.7534 C   0  0  0  0  0  0  0  0  0  0  0  0
  -19.7033  -38.3650   -7.3876 C   0  0  0  0  0  0  0  0  0  0  0  0
  -19.1887  -39.0229   -6.3098 C   0  0  0  0  0  0  0  0  0  0  0  0
  -20.0048  -39.8958   -5.5997 C   0  0  0  0  0  0  0  0  0  0  0  0
  -21.3131  -40.0872   -5.9864 C   0  0  0  0  0  0  0  0  0  0  0  0
  -18.8977  -37.4168   -8.1939 C   0  0  0  0  0  0  0  0  0  0  0  0
  -19.5943  -36.3204   -8.9550 C   0  0  0  0  0  0  0  0  0  0  0  0
  -19.0690  -37.5714   -9.6641 C   0  0  0  0  0  0  0  0  0  0  0  0
  -17.5655  -37.1237   -7.6636 N   0  0  0  0  0  0  0  0  0  0  0  0
  -17.1284  -38.1636   -6.7543 C   0  0  0  0  0  0  0  0  0  0  0  0
  -15.7342  -38.6382   -7.0825 C   0  0  1  0  0  0  0  0  0  0  0  0
  -15.4830  -39.7259   -6.2321 O   0  0  0  0  0  0  0  0  0  0  0  0
  -15.6307  -39.1683   -8.4894 C   0  0  2  0  0  0  0  0  0  0  0  0
  -14.2672  -38.8558   -9.0595 C   0  0  0  0  0  0  0  0  0  0  0  0
  -13.3943  -40.0815   -9.1974 C   0  0  0  0  0  0  0  0  0  0  0  0
  -13.4310  -41.0836  -10.1208 C   0  0  0  0  0  0  0  0  0  0  0  0
  -12.5184  -42.1258  -10.0165 C   0  0  0  0  0  0  0  0  0  0  0  0
  -11.5852  -42.1151   -8.9617 C   0  0  0  0  0  0  0  0  0  0  0  0
  -11.5156  -41.1262   -8.0134 C   0  0  0  0  0  0  0  0  0  0  0  0
  -12.4356  -40.1227   -8.1606 C   0  0  0  0  0  0  0  0  0  0  0  0
  -12.3569  -43.2348  -10.8076 O   0  0  0  0  0  0  0  0  0  0  0  0
  -12.2418  -43.5854  -12.1300 C   0  0  0  0  0  0  0  0  0  0  0  0
  -13.1507  -44.6964  -12.5434 C   0  0  0  0  0  0  0  0  0  0  0  0
  -12.7577  -45.9959  -12.2145 C   0  0  0  0  0  0  0  0  0  0  0  0
  -13.4874  -47.1043  -12.5286 C   0  0  0  0  0  0  0  0  0  0  0  0
  -14.6667  -46.9337  -13.2014 C   0  0  0  0  0  0  0  0  0  0  0  0
  -15.0807  -45.6647  -13.5392 C   0  0  0  0  0  0  0  0  0  0  0  0
  -14.3386  -44.5173  -13.2214 C   0  0  0  0  0  0  0  0  0  0  0  0
  -14.8627  -43.2242  -13.6238 C   0  0  0  0  0  0  0  0  0  0  0  0
  -16.1893  -42.9361  -13.3609 O   0  0  0  0  0  0  0  0  0  0  0  0
  -16.8517  -42.3842  -12.2690 C   0  0  0  0  0  0  0  0  0  0  0  0
  -16.8169  -41.0945  -11.7772 C   0  0  0  0  0  0  0  0  0  0  0  0
  -17.5795  -40.8390  -10.6655 C   0  0  0  0  0  0  0  0  0  0  0  0
  -18.3537  -41.8923  -10.0956 C   0  0  0  0  0  0  0  0  0  0  0  0
  -18.3755  -43.1654  -10.6026 C   0  0  0  0  0  0  0  0  0  0  0  0
  -19.2065  -44.2090   -9.9552 C   0  0  0  0  0  0  0  0  0  0  0  0
  -17.6243  -43.3661  -11.6689 N   0  0  0  0  0  0  0  0  0  0  0  0
  -17.7449  -39.6203   -9.8497 C   0  0  0  0  0  0  0  0  0  0  0  0
  -18.9802  -39.2966   -9.5726 O   0  0  0  0  0  0  0  0  0  0  0  0
  -16.7250  -38.7474   -9.3188 N   0  0  0  0  0  0  0  0  0  0  0  0
  1  2  1  0
  2  3  1  0
  2  4  1  0
  4  5  2  0
  5  6  1  0
  6  7  2  0
  7  8  1  0
  8  9  2  0
  6 10  1  0
 10 11  1  0
 11 12  1  0
 10 13  1  0
 13 14  1  0
 14 15  1  0
 15 16  1  1
 15 17  1  0
 17 18  1  6
 18 19  1  0
 19 20  2  0
 20 21  1  0
 21 22  2  0
 22 23  1  0
 23 24  2  0
 21 25  1  0
 25 26  1  0
 26 27  1  0
 27 28  2  0
 28 29  1  0
 29 30  2  0
 30 31  1  0
 31 32  2  0
 32 33  1  0
 33 34  1  0
 34 35  1  0
 35 36  2  0
 36 37  1  0
 37 38  2  0
 38 39  1  0
 39 40  1  0
 39 41  2  0
 37 42  1  0
 42 43  2  0
 42 44  1  0
  9  4  1  0
 12 10  1  0
 24 19  1  0
 32 27  1  0
 41 35  1  0
 44 17  1  0
M  END
$$$$
