
     RDKit          3D

 44 49  0  0  0  0  0  0  0  0999 V2000
   -9.5187  -36.7640  -11.3955 C   0  0  0  0  0  0  0  0  0  0  0  0
  -11.0185  -36.6539  -11.3376 C   0  0  0  0  0  0  0  0  0  0  0  0
  -11.4828  -35.8457  -12.5361 C   0  0  0  0  0  0  0  0  0  0  0  0
  -11.6419  -38.0001  -11.2975 C   0  0  0  0  0  0  0  0  0  0  0  0
  -12.0685  -38.5322  -10.1087 C   0  0  0  0  0  0  0  0  0  0  0  0
  -12.6557  -39.7936  -10.0159 C   0  0  0  0  0  0  0  0  0  0  0  0
  -12.8206  -40.5419  -11.1439 C   0  0  0  0  0  0  0  0  0  0  0  0
  -12.3969  -40.0265  -12.3632 C   0  0  0  0  0  0  0  0  0  0  0  0
  -11.8200  -38.7769  -12.4220 C   0  0  0  0  0  0  0  0  0  0  0  0
  -13.0834  -40.2724   -8.6797 C   0  0  0  0  0  0  0  0  0  0  0  0
  -12.1029  -41.0211   -7.8168 C   0  0  0  0  0  0  0  0  0  0  0  0
  -13.2131  -41.7514   -8.5771 C   0  0  0  0  0  0  0  0  0  0  0  0
  -14.0662  -39.4271   -8.0002 N   0  0  0  0  0  0  0  0  0  0  0  0
  -15.0971  -38.9885   -8.9189 C   0  0  0  0  0  0  0  0  0  0  0  0
  -16.2312  -38.3048   -8.1956 C   0  0  1  0  0  0  0  0  0  0  0  0
  -17.0664  -37.7769   -9.1920 O   0  0  0  0  0  0  0  0  0  0  0  0
  -17.0725  -39.2773   -7.4097 C   0  0  2  0  0  0  0  0  0  0  0  0
  -17.7304  -38.5695   -6.2487 C   0  0  0  0  0  0  0  0  0  0  0  0
  -19.2193  -38.3938   -6.4366 C   0  0  0  0  0  0  0  0  0  0  0  0
  -20.2305  -39.3001   -6.3164 C   0  0  0  0  0  0  0  0  0  0  0  0
  -21.5336  -38.8885   -6.5657 C   0  0  0  0  0  0  0  0  0  0  0  0
  -21.7697  -37.5499   -6.9346 C   0  0  0  0  0  0  0  0  0  0  0  0
  -20.7809  -36.6082   -7.0662 C   0  0  0  0  0  0  0  0  0  0  0  0
  -19.5152  -37.0637   -6.8094 C   0  0  0  0  0  0  0  0  0  0  0  0
  -22.7049  -39.6008   -6.5155 O   0  0  0  0  0  0  0  0  0  0  0  0
  -23.3889  -40.4586   -5.6900 C   0  0  0  0  0  0  0  0  0  0  0  0
  -23.8696  -41.6989   -6.3698 C   0  0  0  0  0  0  0  0  0  0  0  0
  -25.0294  -41.5932   -7.1411 C   0  0  0  0  0  0  0  0  0  0  0  0
  -25.5817  -42.6417   -7.8159 C   0  0  0  0  0  0  0  0  0  0  0  0
  -24.9666  -43.8612   -7.7326 C   0  0  0  0  0  0  0  0  0  0  0  0
  -23.8216  -43.9966   -6.9800 C   0  0  0  0  0  0  0  0  0  0  0  0
  -23.2444  -42.9254   -6.2817 C   0  0  0  0  0  0  0  0  0  0  0  0
  -22.0359  -43.1734   -5.5156 C   0  0  0  0  0  0  0  0  0  0  0  0
  -21.0036  -43.8717   -6.1144 O   0  0  0  0  0  0  0  0  0  0  0  0
  -19.9165  -43.4922   -6.8954 C   0  0  0  0  0  0  0  0  0  0  0  0
  -18.7891  -42.7754   -6.5470 C   0  0  0  0  0  0  0  0  0  0  0  0
  -17.8754  -42.5426   -7.5438 C   0  0  0  0  0  0  0  0  0  0  0  0
  -18.1301  -43.0473   -8.8530 C   0  0  0  0  0  0  0  0  0  0  0  0
  -19.2556  -43.7596   -9.1759 C   0  0  0  0  0  0  0  0  0  0  0  0
  -19.4510  -44.2532  -10.5604 C   0  0  0  0  0  0  0  0  0  0  0  0
  -20.1078  -43.9557   -8.1875 N   0  0  0  0  0  0  0  0  0  0  0  0
  -16.6088  -41.7849   -7.5548 C   0  0  0  0  0  0  0  0  0  0  0  0
  -15.5954  -42.3985   -8.1063 O   0  0  0  0  0  0  0  0  0  0  0  0
  -16.3475  -40.4612   -7.0418 N   0  0  0  0  0  0  0  0  0  0  0  0
  1  2  1  0
  2  3  1  0
  2  4  1  0
  4  5  2  0
  5  6  1  0
  6  7  2  0
  7  8  1  0
  8  9  2  0
  6 10  1  0
 10 11  1  0
 11 12  1  0
 10 13  1  0
 13 14  1  0
 14 15  1  0
 15 16  1  6
 15 17  1  0
 17 18  1  1
 18 19  1  0
 19 20  2  0
 20 21  1  0
 21 22  2  0
 22 23  1  0
 23 24  2  0
 21 25  1  0
 25 26  1  0
 26 27  1  0
 27 28  2  0
 28 29  1  0
 29 30  2  0
 30 31  1  0
 31 32  2  0
 32 33  1  0
 33 34  1  0
 34 35  1  0
 35 36  2  0
 36 37  1  0
 37 38  2  0
 38 39  1  0
 39 40  1  0
 39 41  2  0
 37 42  1  0
 42 43  2  0
 42 44  1  0
  9  4  1  0
 12 10  1  0
 24 19  1  0
 32 27  1  0
 41 35  1  0
 44 17  1  0
M  END
$$$$
