
     RDKit          3D

 44 49  0  0  0  0  0  0  0  0999 V2000
  -21.4745  -38.2491  -11.8073 C   0  0  0  0  0  0  0  0  0  0  0  0
  -20.3890  -37.9032  -10.8239 C   0  0  0  0  0  0  0  0  0  0  0  0
  -19.9311  -36.4823  -11.1012 C   0  0  0  0  0  0  0  0  0  0  0  0
  -20.8706  -38.0719   -9.4304 C   0  0  0  0  0  0  0  0  0  0  0  0
  -20.3455  -39.0516   -8.6285 C   0  0  0  0  0  0  0  0  0  0  0  0
  -20.7662  -39.2550   -7.3148 C   0  0  0  0  0  0  0  0  0  0  0  0
  -21.7383  -38.4558   -6.7897 C   0  0  0  0  0  0  0  0  0  0  0  0
  -22.2883  -37.4541   -7.5810 C   0  0  0  0  0  0  0  0  0  0  0  0
  -21.8515  -37.2785   -8.8756 C   0  0  0  0  0  0  0  0  0  0  0  0
  -20.1295  -40.3427   -6.5341 C   0  0  0  0  0  0  0  0  0  0  0  0
  -20.9977  -41.3054   -5.7684 C   0  0  0  0  0  0  0  0  0  0  0  0
  -20.2423  -40.1783   -5.0592 C   0  0  0  0  0  0  0  0  0  0  0  0
  -18.8821  -40.8640   -7.0946 N   0  0  0  0  0  0  0  0  0  0  0  0
  -17.7334  -40.2074   -6.5041 C   0  0  0  0  0  0  0  0  0  0  0  0
  -17.2765  -39.0339   -7.3352 C   0  0  1  0  0  0  0  0  0  0  0  0
  -16.0363  -38.6426   -6.8079 O   0  0  0  0  0  0  0  0  0  0  0  0
  -17.0239  -39.4179   -8.7705 C   0  0  2  0  0  0  0  0  0  0  0  0
  -17.0304  -38.1850   -9.6433 C   0  0  0  0  0  0  0  0  0  0  0  0
  -15.6550  -37.8183  -10.1502 C   0  0  0  0  0  0  0  0  0  0  0  0
  -14.9069  -38.3828  -11.1402 C   0  0  0  0  0  0  0  0  0  0  0  0
  -13.6447  -37.8666  -11.4047 C   0  0  0  0  0  0  0  0  0  0  0  0
  -13.1773  -36.7779  -10.6431 C   0  0  0  0  0  0  0  0  0  0  0  0
  -13.8985  -36.1821   -9.6397 C   0  0  0  0  0  0  0  0  0  0  0  0
  -15.1351  -36.7273   -9.4187 C   0  0  0  0  0  0  0  0  0  0  0  0
  -12.7131  -38.2558  -12.3333 O   0  0  0  0  0  0  0  0  0  0  0  0
  -12.6087  -38.5516  -13.6700 C   0  0  0  0  0  0  0  0  0  0  0  0
  -11.9135  -39.8433  -13.9520 C   0  0  0  0  0  0  0  0  0  0  0  0
  -10.5179  -39.8410  -13.8929 C   0  0  0  0  0  0  0  0  0  0  0  0
   -9.7536  -40.9458  -14.1274 C   0  0  0  0  0  0  0  0  0  0  0  0
  -10.3881  -42.1180  -14.4368 C   0  0  0  0  0  0  0  0  0  0  0  0
  -11.7630  -42.1517  -14.5024 C   0  0  0  0  0  0  0  0  0  0  0  0
  -12.5595  -41.0218  -14.2631 C   0  0  0  0  0  0  0  0  0  0  0  0
  -14.0017  -41.1625  -14.3584 C   0  0  0  0  0  0  0  0  0  0  0  0
  -14.6067  -42.2292  -13.7196 O   0  0  0  0  0  0  0  0  0  0  0  0
  -15.1039  -42.4194  -12.4342 C   0  0  0  0  0  0  0  0  0  0  0  0
  -16.2059  -41.8547  -11.8233 C   0  0  0  0  0  0  0  0  0  0  0  0
  -16.4509  -42.2308  -10.5267 C   0  0  0  0  0  0  0  0  0  0  0  0
  -15.5790  -43.1672   -9.8971 C   0  0  0  0  0  0  0  0  0  0  0  0
  -14.4917  -43.7178  -10.5241 C   0  0  0  0  0  0  0  0  0  0  0  0
  -13.6304  -44.6866   -9.8041 C   0  0  0  0  0  0  0  0  0  0  0  0
  -14.2927  -43.3244  -11.7679 N   0  0  0  0  0  0  0  0  0  0  0  0
  -17.4816  -41.8034   -9.5606 C   0  0  0  0  0  0  0  0  0  0  0  0
  -18.0907  -42.7715   -8.9284 O   0  0  0  0  0  0  0  0  0  0  0  0
  -17.8986  -40.4632   -9.2234 N   0  0  0  0  0  0  0  0  0  0  0  0
  1  2  1  0
  2  3  1  0
  2  4  1  0
  4  5  2  0
  5  6  1  0
  6  7  2  0
  7  8  1  0
  8  9  2  0
  6 10  1  0
 10 11  1  0
 11 12  1  0
 10 13  1  0
 13 14  1  0
 14 15  1  0
 15 16  1  1
 15 17  1  0
 17 18  1  6
 18 19  1  0
 19 20  2  0
 20 21  1  0
 21 22  2  0
 22 23  1  0
 23 24  2  0
 21 25  1  0
 25 26  1  0
 26 27  1  0
 27 28  2  0
 28 29  1  0
 29 30  2  0
 30 31  1  0
 31 32  2  0
 32 33  1  0
 33 34  1  0
 34 35  1  0
 35 36  2  0
 36 37  1  0
 37 38  2  0
 38 39  1  0
 39 40  1  0
 39 41  2  0
 37 42  1  0
 42 43  2  0
 42 44  1  0
  9  4  1  0
 12 10  1  0
 24 19  1  0
 32 27  1  0
 41 35  1  0
 44 17  1  0
M  END
$$$$
