
     RDKit          3D

 44 49  0  0  0  0  0  0  0  0999 V2000
  -11.1095  -40.6589  -15.0905 C   0  0  0  0  0  0  0  0  0  0  0  0
  -11.6038  -40.7960  -13.6757 C   0  0  0  0  0  0  0  0  0  0  0  0
  -10.7389  -41.8231  -12.9670 C   0  0  0  0  0  0  0  0  0  0  0  0
  -11.5885  -39.4824  -12.9853 C   0  0  0  0  0  0  0  0  0  0  0  0
  -12.4146  -39.2505  -11.9164 C   0  0  0  0  0  0  0  0  0  0  0  0
  -12.4424  -38.0334  -11.2366 C   0  0  0  0  0  0  0  0  0  0  0  0
  -11.6208  -37.0216  -11.6374 C   0  0  0  0  0  0  0  0  0  0  0  0
  -10.7726  -37.2296  -12.7187 C   0  0  0  0  0  0  0  0  0  0  0  0
  -10.7687  -38.4435  -13.3700 C   0  0  0  0  0  0  0  0  0  0  0  0
  -13.3730  -37.8899  -10.0915 C   0  0  0  0  0  0  0  0  0  0  0  0
  -13.9947  -36.5477   -9.8112 C   0  0  0  0  0  0  0  0  0  0  0  0
  -12.8326  -37.0780   -8.9674 C   0  0  0  0  0  0  0  0  0  0  0  0
  -14.1731  -39.0768   -9.7864 N   0  0  0  0  0  0  0  0  0  0  0  0
  -15.5516  -38.8920  -10.1924 C   0  0  0  0  0  0  0  0  0  0  0  0
  -16.2888  -37.9709   -9.2518 C   0  0  1  0  0  0  0  0  0  0  0  0
  -17.2560  -37.3143  -10.0281 O   0  0  0  0  0  0  0  0  0  0  0  0
  -17.0423  -38.7283   -8.1888 C   0  0  2  0  0  0  0  0  0  0  0  0
  -17.7228  -37.7602   -7.2499 C   0  0  0  0  0  0  0  0  0  0  0  0
  -19.2241  -37.7369   -7.4188 C   0  0  0  0  0  0  0  0  0  0  0  0
  -20.1662  -38.6315   -7.0054 C   0  0  0  0  0  0  0  0  0  0  0  0
  -21.5002  -38.3887   -7.3075 C   0  0  0  0  0  0  0  0  0  0  0  0
  -21.8378  -37.2281   -8.0304 C   0  0  0  0  0  0  0  0  0  0  0  0
  -20.9208  -36.3043   -8.4637 C   0  0  0  0  0  0  0  0  0  0  0  0
  -19.6209  -36.5892   -8.1406 C   0  0  0  0  0  0  0  0  0  0  0  0
  -22.6170  -39.1274   -7.0096 O   0  0  0  0  0  0  0  0  0  0  0  0
  -23.2208  -39.7541   -5.9477 C   0  0  0  0  0  0  0  0  0  0  0  0
  -23.6277  -41.1638   -6.2280 C   0  0  0  0  0  0  0  0  0  0  0  0
  -24.8087  -41.3538   -6.9495 C   0  0  0  0  0  0  0  0  0  0  0  0
  -25.3005  -42.5830   -7.2765 C   0  0  0  0  0  0  0  0  0  0  0  0
  -24.5995  -43.6880   -6.8765 C   0  0  0  0  0  0  0  0  0  0  0  0
  -23.4316  -43.5327   -6.1639 C   0  0  0  0  0  0  0  0  0  0  0  0
  -22.9161  -42.2735   -5.8219 C   0  0  0  0  0  0  0  0  0  0  0  0
  -21.6767  -42.2181   -5.0671 C   0  0  0  0  0  0  0  0  0  0  0  0
  -20.6112  -42.9937   -5.4854 O   0  0  0  0  0  0  0  0  0  0  0  0
  -19.5707  -42.7870   -6.3857 C   0  0  0  0  0  0  0  0  0  0  0  0
  -18.4892  -41.9329   -6.3011 C   0  0  0  0  0  0  0  0  0  0  0  0
  -17.6161  -41.9388   -7.3596 C   0  0  0  0  0  0  0  0  0  0  0  0
  -17.8633  -42.8107   -8.4606 C   0  0  0  0  0  0  0  0  0  0  0  0
  -18.9427  -43.6530   -8.5221 C   0  0  0  0  0  0  0  0  0  0  0  0
  -19.1331  -44.5322   -9.7010 C   0  0  0  0  0  0  0  0  0  0  0  0
  -19.7571  -43.6107   -7.4847 N   0  0  0  0  0  0  0  0  0  0  0  0
  -16.4066  -41.1398   -7.6367 C   0  0  0  0  0  0  0  0  0  0  0  0
  -15.3648  -41.8219   -8.0328 O   0  0  0  0  0  0  0  0  0  0  0  0
  -16.2279  -39.7113   -7.5307 N   0  0  0  0  0  0  0  0  0  0  0  0
  1  2  1  0
  2  3  1  0
  2  4  1  0
  4  5  2  0
  5  6  1  0
  6  7  2  0
  7  8  1  0
  8  9  2  0
  6 10  1  0
 10 11  1  0
 11 12  1  0
 10 13  1  0
 13 14  1  0
 14 15  1  0
 15 16  1  6
 15 17  1  0
 17 18  1  1
 18 19  1  0
 19 20  2  0
 20 21  1  0
 21 22  2  0
 22 23  1  0
 23 24  2  0
 21 25  1  0
 25 26  1  0
 26 27  1  0
 27 28  2  0
 28 29  1  0
 29 30  2  0
 30 31  1  0
 31 32  2  0
 32 33  1  0
 33 34  1  0
 34 35  1  0
 35 36  2  0
 36 37  1  0
 37 38  2  0
 38 39  1  0
 39 40  1  0
 39 41  2  0
 37 42  1  0
 42 43  2  0
 42 44  1  0
  9  4  1  0
 12 10  1  0
 24 19  1  0
 32 27  1  0
 41 35  1  0
 44 17  1  0
M  END
$$$$
