
     RDKit          3D

 44 49  0  0  0  0  0  0  0  0999 V2000
  -15.8588  -36.1320  -11.7258 C   0  0  0  0  0  0  0  0  0  0  0  0
  -14.5533  -35.9633  -12.4553 C   0  0  0  0  0  0  0  0  0  0  0  0
  -13.7731  -34.8480  -11.7825 C   0  0  0  0  0  0  0  0  0  0  0  0
  -13.7958  -37.2394  -12.4766 C   0  0  0  0  0  0  0  0  0  0  0  0
  -13.7834  -38.0574  -11.3770 C   0  0  0  0  0  0  0  0  0  0  0  0
  -13.0842  -39.2634  -11.3437 C   0  0  0  0  0  0  0  0  0  0  0  0
  -12.3791  -39.6612  -12.4410 C   0  0  0  0  0  0  0  0  0  0  0  0
  -12.3746  -38.8506  -13.5702 C   0  0  0  0  0  0  0  0  0  0  0  0
  -13.0752  -37.6645  -13.5718 C   0  0  0  0  0  0  0  0  0  0  0  0
  -13.1398  -40.0732  -10.1032 C   0  0  0  0  0  0  0  0  0  0  0  0
  -11.8824  -40.7242   -9.5914 C   0  0  0  0  0  0  0  0  0  0  0  0
  -12.9567  -41.5338  -10.3223 C   0  0  0  0  0  0  0  0  0  0  0  0
  -14.1152  -39.6237   -9.1089 N   0  0  0  0  0  0  0  0  0  0  0  0
  -15.3067  -39.1039   -9.7487 C   0  0  0  0  0  0  0  0  0  0  0  0
  -16.1152  -38.2480   -8.8052 C   0  0  1  0  0  0  0  0  0  0  0  0
  -17.1275  -37.6626   -9.5809 O   0  0  0  0  0  0  0  0  0  0  0  0
  -16.8116  -39.0677   -7.7495 C   0  0  2  0  0  0  0  0  0  0  0  0
  -17.4878  -38.1569   -6.7519 C   0  0  0  0  0  0  0  0  0  0  0  0
  -18.9940  -38.1713   -6.8718 C   0  0  0  0  0  0  0  0  0  0  0  0
  -19.8964  -39.1084   -6.4643 C   0  0  0  0  0  0  0  0  0  0  0  0
  -21.2459  -38.8935   -6.7140 C   0  0  0  0  0  0  0  0  0  0  0  0
  -21.6397  -37.7163   -7.3795 C   0  0  0  0  0  0  0  0  0  0  0  0
  -20.7638  -36.7500   -7.8049 C   0  0  0  0  0  0  0  0  0  0  0  0
  -19.4465  -37.0088   -7.5348 C   0  0  0  0  0  0  0  0  0  0  0  0
  -22.3311  -39.6756   -6.4101 O   0  0  0  0  0  0  0  0  0  0  0  0
  -22.8817  -40.3602   -5.3551 C   0  0  0  0  0  0  0  0  0  0  0  0
  -23.2578  -41.7695   -5.6777 C   0  0  0  0  0  0  0  0  0  0  0  0
  -24.4561  -41.9662   -6.3682 C   0  0  0  0  0  0  0  0  0  0  0  0
  -24.9236  -43.1958   -6.7276 C   0  0  0  0  0  0  0  0  0  0  0  0
  -24.1790  -44.2943   -6.3940 C   0  0  0  0  0  0  0  0  0  0  0  0
  -22.9931  -44.1323   -5.7134 C   0  0  0  0  0  0  0  0  0  0  0  0
  -22.5022  -42.8726   -5.3385 C   0  0  0  0  0  0  0  0  0  0  0  0
  -21.2407  -42.8099   -4.6220 C   0  0  0  0  0  0  0  0  0  0  0  0
  -20.1681  -43.5372   -5.1042 O   0  0  0  0  0  0  0  0  0  0  0  0
  -19.1641  -43.2654   -6.0283 C   0  0  0  0  0  0  0  0  0  0  0  0
  -18.1049  -42.3838   -5.9446 C   0  0  0  0  0  0  0  0  0  0  0  0
  -17.2673  -42.3232   -7.0298 C   0  0  0  0  0  0  0  0  0  0  0  0
  -17.5260  -43.1590   -8.1559 C   0  0  0  0  0  0  0  0  0  0  0  0
  -18.5827  -44.0296   -8.2162 C   0  0  0  0  0  0  0  0  0  0  0  0
  -18.7870  -44.8679   -9.4222 C   0  0  0  0  0  0  0  0  0  0  0  0
  -19.3634  -44.0513   -7.1525 N   0  0  0  0  0  0  0  0  0  0  0  0
  -16.0905  -41.4789   -7.3134 C   0  0  0  0  0  0  0  0  0  0  0  0
  -15.0435  -42.1144   -7.7691 O   0  0  0  0  0  0  0  0  0  0  0  0
  -15.9487  -40.0509   -7.1569 N   0  0  0  0  0  0  0  0  0  0  0  0
  1  2  1  0
  2  3  1  0
  2  4  1  0
  4  5  2  0
  5  6  1  0
  6  7  2  0
  7  8  1  0
  8  9  2  0
  6 10  1  0
 10 11  1  0
 11 12  1  0
 10 13  1  0
 13 14  1  0
 14 15  1  0
 15 16  1  6
 15 17  1  0
 17 18  1  1
 18 19  1  0
 19 20  2  0
 20 21  1  0
 21 22  2  0
 22 23  1  0
 23 24  2  0
 21 25  1  0
 25 26  1  0
 26 27  1  0
 27 28  2  0
 28 29  1  0
 29 30  2  0
 30 31  1  0
 31 32  2  0
 32 33  1  0
 33 34  1  0
 34 35  1  0
 35 36  2  0
 36 37  1  0
 37 38  2  0
 38 39  1  0
 39 40  1  0
 39 41  2  0
 37 42  1  0
 42 43  2  0
 42 44  1  0
  9  4  1  0
 12 10  1  0
 24 19  1  0
 32 27  1  0
 41 35  1  0
 44 17  1  0
M  END
$$$$
