
     RDKit          3D

 44 49  0  0  0  0  0  0  0  0999 V2000
  -13.0333  -34.4563  -14.1078 C   0  0  0  0  0  0  0  0  0  0  0  0
  -12.0952  -34.6212  -12.9426 C   0  0  0  0  0  0  0  0  0  0  0  0
  -12.6771  -33.8765  -11.7542 C   0  0  0  0  0  0  0  0  0  0  0  0
  -11.8747  -36.0586  -12.6463 C   0  0  0  0  0  0  0  0  0  0  0  0
  -12.7711  -36.7541  -11.8774 C   0  0  0  0  0  0  0  0  0  0  0  0
  -12.6082  -38.1034  -11.5659 C   0  0  0  0  0  0  0  0  0  0  0  0
  -11.5187  -38.7745  -12.0373 C   0  0  0  0  0  0  0  0  0  0  0  0
  -10.5936  -38.0934  -12.8198 C   0  0  0  0  0  0  0  0  0  0  0  0
  -10.7826  -36.7600  -13.1098 C   0  0  0  0  0  0  0  0  0  0  0  0
  -13.6397  -38.7601  -10.7277 C   0  0  0  0  0  0  0  0  0  0  0  0
  -13.4694  -38.7813   -9.2320 C   0  0  0  0  0  0  0  0  0  0  0  0
  -13.1855  -40.0221  -10.0828 C   0  0  0  0  0  0  0  0  0  0  0  0
  -15.0061  -38.6825  -11.2464 N   0  0  0  0  0  0  0  0  0  0  0  0
  -15.8822  -39.5947  -10.5397 C   0  0  0  0  0  0  0  0  0  0  0  0
  -17.0800  -38.8803   -9.9640 C   0  0  1  0  0  0  0  0  0  0  0  0
  -18.1318  -39.0928  -10.8683 O   0  0  0  0  0  0  0  0  0  0  0  0
  -17.5221  -39.4775   -8.6528 C   0  0  2  0  0  0  0  0  0  0  0  0
  -17.9625  -38.3828   -7.7096 C   0  0  0  0  0  0  0  0  0  0  0  0
  -19.4576  -38.3626   -7.4921 C   0  0  0  0  0  0  0  0  0  0  0  0
  -20.2441  -39.1807   -6.7367 C   0  0  0  0  0  0  0  0  0  0  0  0
  -21.6160  -38.9632   -6.7188 C   0  0  0  0  0  0  0  0  0  0  0  0
  -22.1513  -37.9062   -7.4804 C   0  0  0  0  0  0  0  0  0  0  0  0
  -21.3947  -37.0615   -8.2523 C   0  0  0  0  0  0  0  0  0  0  0  0
  -20.0495  -37.3175   -8.2358 C   0  0  0  0  0  0  0  0  0  0  0  0
  -22.6043  -39.6402   -6.0504 O   0  0  0  0  0  0  0  0  0  0  0  0
  -22.9047  -40.1100   -4.7958 C   0  0  0  0  0  0  0  0  0  0  0  0
  -23.3389  -41.5391   -4.7722 C   0  0  0  0  0  0  0  0  0  0  0  0
  -24.6600  -41.8090   -5.1370 C   0  0  0  0  0  0  0  0  0  0  0  0
  -25.1921  -43.0644   -5.1607 C   0  0  0  0  0  0  0  0  0  0  0  0
  -24.3887  -44.1146   -4.8084 C   0  0  0  0  0  0  0  0  0  0  0  0
  -23.0817  -43.8801   -4.4441 C   0  0  0  0  0  0  0  0  0  0  0  0
  -22.5236  -42.5933   -4.4161 C   0  0  0  0  0  0  0  0  0  0  0  0
  -21.1346  -42.4531   -4.0163 C   0  0  0  0  0  0  0  0  0  0  0  0
  -20.1938  -43.2921   -4.5845 O   0  0  0  0  0  0  0  0  0  0  0  0
  -19.4210  -43.2224   -5.7394 C   0  0  0  0  0  0  0  0  0  0  0  0
  -18.3722  -42.3791   -6.0480 C   0  0  0  0  0  0  0  0  0  0  0  0
  -17.7968  -42.5392   -7.2834 C   0  0  0  0  0  0  0  0  0  0  0  0
  -18.2967  -43.5481   -8.1584 C   0  0  0  0  0  0  0  0  0  0  0  0
  -19.3379  -44.3767   -7.8298 C   0  0  0  0  0  0  0  0  0  0  0  0
  -19.8024  -45.4040   -8.7928 C   0  0  0  0  0  0  0  0  0  0  0  0
  -19.8627  -44.1841   -6.6344 N   0  0  0  0  0  0  0  0  0  0  0  0
  -16.7150  -41.8008   -7.9635 C   0  0  0  0  0  0  0  0  0  0  0  0
  -15.7935  -42.5439   -8.5171 O   0  0  0  0  0  0  0  0  0  0  0  0
  -16.5461  -40.3735   -8.0985 N   0  0  0  0  0  0  0  0  0  0  0  0
  1  2  1  0
  2  3  1  0
  2  4  1  0
  4  5  2  0
  5  6  1  0
  6  7  2  0
  7  8  1  0
  8  9  2  0
  6 10  1  0
 10 11  1  0
 11 12  1  0
 10 13  1  0
 13 14  1  0
 14 15  1  0
 15 16  1  6
 15 17  1  0
 17 18  1  1
 18 19  1  0
 19 20  2  0
 20 21  1  0
 21 22  2  0
 22 23  1  0
 23 24  2  0
 21 25  1  0
 25 26  1  0
 26 27  1  0
 27 28  2  0
 28 29  1  0
 29 30  2  0
 30 31  1  0
 31 32  2  0
 32 33  1  0
 33 34  1  0
 34 35  1  0
 35 36  2  0
 36 37  1  0
 37 38  2  0
 38 39  1  0
 39 40  1  0
 39 41  2  0
 37 42  1  0
 42 43  2  0
 42 44  1  0
  9  4  1  0
 12 10  1  0
 24 19  1  0
 32 27  1  0
 41 35  1  0
 44 17  1  0
M  END
$$$$
