
     RDKit          3D

 44 49  0  0  0  0  0  0  0  0999 V2000
  -17.2528  -38.0745  -12.9979 C   0  0  0  0  0  0  0  0  0  0  0  0
  -16.2971  -37.0165  -13.4797 C   0  0  0  0  0  0  0  0  0  0  0  0
  -17.0194  -35.6810  -13.4659 C   0  0  0  0  0  0  0  0  0  0  0  0
  -15.0717  -36.9964  -12.6428 C   0  0  0  0  0  0  0  0  0  0  0  0
  -14.8597  -37.9676  -11.6993 C   0  0  0  0  0  0  0  0  0  0  0  0
  -13.7284  -37.9916  -10.8846 C   0  0  0  0  0  0  0  0  0  0  0  0
  -12.7837  -37.0174  -11.0185 C   0  0  0  0  0  0  0  0  0  0  0  0
  -12.9733  -36.0200  -11.9679 C   0  0  0  0  0  0  0  0  0  0  0  0
  -14.1021  -36.0237  -12.7577 C   0  0  0  0  0  0  0  0  0  0  0  0
  -13.5973  -39.0898   -9.8972 C   0  0  0  0  0  0  0  0  0  0  0  0
  -12.3066  -39.8611   -9.8205 C   0  0  0  0  0  0  0  0  0  0  0  0
  -13.5450  -40.4482  -10.5029 C   0  0  0  0  0  0  0  0  0  0  0  0
  -14.3401  -38.8989   -8.6508 N   0  0  0  0  0  0  0  0  0  0  0  0
  -15.5541  -38.1422   -8.8807 C   0  0  0  0  0  0  0  0  0  0  0  0
  -16.3436  -37.9588   -7.6080 C   0  0  1  0  0  0  0  0  0  0  0  0
  -17.4054  -37.0993   -7.9288 O   0  0  0  0  0  0  0  0  0  0  0  0
  -16.9690  -39.2464   -7.1365 C   0  0  2  0  0  0  0  0  0  0  0  0
  -17.5296  -39.0685   -5.7451 C   0  0  0  0  0  0  0  0  0  0  0  0
  -19.0403  -39.0508   -5.7196 C   0  0  0  0  0  0  0  0  0  0  0  0
  -19.9304  -40.0775   -5.8296 C   0  0  0  0  0  0  0  0  0  0  0  0
  -21.2898  -39.7934   -5.7963 C   0  0  0  0  0  0  0  0  0  0  0  0
  -21.7059  -38.4558   -5.6502 C   0  0  0  0  0  0  0  0  0  0  0  0
  -20.8430  -37.3956   -5.5362 C   0  0  0  0  0  0  0  0  0  0  0  0
  -19.5151  -37.7283   -5.5745 C   0  0  0  0  0  0  0  0  0  0  0  0
  -22.3665  -40.6383   -5.8888 O   0  0  0  0  0  0  0  0  0  0  0  0
  -22.8429  -41.8102   -5.3550 C   0  0  0  0  0  0  0  0  0  0  0  0
  -23.2858  -42.8053   -6.3773 C   0  0  0  0  0  0  0  0  0  0  0  0
  -24.5446  -42.6112   -6.9508 C   0  0  0  0  0  0  0  0  0  0  0  0
  -25.0766  -43.4392   -7.8947 C   0  0  0  0  0  0  0  0  0  0  0  0
  -24.3377  -44.5169   -8.3009 C   0  0  0  0  0  0  0  0  0  0  0  0
  -23.0930  -44.7346   -7.7538 C   0  0  0  0  0  0  0  0  0  0  0  0
  -22.5355  -43.8897   -6.7824 C   0  0  0  0  0  0  0  0  0  0  0  0
  -21.2153  -44.2078   -6.2680 C   0  0  0  0  0  0  0  0  0  0  0  0
  -20.2099  -44.5128   -7.1670 O   0  0  0  0  0  0  0  0  0  0  0  0
  -19.2826  -43.7448   -7.8641 C   0  0  0  0  0  0  0  0  0  0  0  0
  -18.1952  -43.0354   -7.3942 C   0  0  0  0  0  0  0  0  0  0  0  0
  -17.4536  -42.3561   -8.3277 C   0  0  0  0  0  0  0  0  0  0  0  0
  -17.8329  -42.4233   -9.7007 C   0  0  0  0  0  0  0  0  0  0  0  0
  -18.9154  -43.1366  -10.1454 C   0  0  0  0  0  0  0  0  0  0  0  0
  -19.2475  -43.1598  -11.5903 C   0  0  0  0  0  0  0  0  0  0  0  0
  -19.6011  -43.7703   -9.2127 N   0  0  0  0  0  0  0  0  0  0  0  0
  -16.2821  -41.4688   -8.1917 C   0  0  0  0  0  0  0  0  0  0  0  0
  -15.2973  -41.7132   -9.0151 O   0  0  0  0  0  0  0  0  0  0  0  0
  -16.0864  -40.3708   -7.2752 N   0  0  0  0  0  0  0  0  0  0  0  0
  1  2  1  0
  2  3  1  0
  2  4  1  0
  4  5  2  0
  5  6  1  0
  6  7  2  0
  7  8  1  0
  8  9  2  0
  6 10  1  0
 10 11  1  0
 11 12  1  0
 10 13  1  0
 13 14  1  0
 14 15  1  0
 15 16  1  6
 15 17  1  0
 17 18  1  1
 18 19  1  0
 19 20  2  0
 20 21  1  0
 21 22  2  0
 22 23  1  0
 23 24  2  0
 21 25  1  0
 25 26  1  0
 26 27  1  0
 27 28  2  0
 28 29  1  0
 29 30  2  0
 30 31  1  0
 31 32  2  0
 32 33  1  0
 33 34  1  0
 34 35  1  0
 35 36  2  0
 36 37  1  0
 37 38  2  0
 38 39  1  0
 39 40  1  0
 39 41  2  0
 37 42  1  0
 42 43  2  0
 42 44  1  0
  9  4  1  0
 12 10  1  0
 24 19  1  0
 32 27  1  0
 41 35  1  0
 44 17  1  0
M  END
$$$$
