
     RDKit          3D

 44 49  0  0  0  0  0  0  0  0999 V2000
  -22.3231  -37.7121  -11.7078 C   0  0  0  0  0  0  0  0  0  0  0  0
  -21.0766  -38.3499  -11.1561 C   0  0  0  0  0  0  0  0  0  0  0  0
  -19.8786  -37.5599  -11.6519 C   0  0  0  0  0  0  0  0  0  0  0  0
  -21.1303  -38.4101   -9.6742 C   0  0  0  0  0  0  0  0  0  0  0  0
  -20.7634  -39.5529   -9.0124 C   0  0  0  0  0  0  0  0  0  0  0  0
  -20.8001  -39.6629   -7.6228 C   0  0  0  0  0  0  0  0  0  0  0  0
  -21.2147  -38.6001   -6.8759 C   0  0  0  0  0  0  0  0  0  0  0  0
  -21.5925  -37.4285   -7.5214 C   0  0  0  0  0  0  0  0  0  0  0  0
  -21.5455  -37.3511   -8.8960 C   0  0  0  0  0  0  0  0  0  0  0  0
  -20.3793  -40.9449   -7.0086 C   0  0  0  0  0  0  0  0  0  0  0  0
  -21.4125  -42.0057   -6.7368 C   0  0  0  0  0  0  0  0  0  0  0  0
  -20.8527  -41.1330   -5.6103 C   0  0  0  0  0  0  0  0  0  0  0  0
  -19.0335  -41.3951   -7.3666 N   0  0  0  0  0  0  0  0  0  0  0  0
  -18.0252  -40.5406   -6.7728 C   0  0  0  0  0  0  0  0  0  0  0  0
  -18.0125  -39.1723   -7.4085 C   0  0  1  0  0  0  0  0  0  0  0  0
  -17.1864  -38.3755   -6.6011 O   0  0  0  0  0  0  0  0  0  0  0  0
  -17.3801  -39.1870   -8.7765 C   0  0  2  0  0  0  0  0  0  0  0  0
  -18.0127  -38.1282   -9.6487 C   0  0  0  0  0  0  0  0  0  0  0  0
  -17.0903  -36.9621   -9.9176 C   0  0  0  0  0  0  0  0  0  0  0  0
  -16.0236  -36.8652  -10.7609 C   0  0  0  0  0  0  0  0  0  0  0  0
  -15.3145  -35.6717  -10.8115 C   0  0  0  0  0  0  0  0  0  0  0  0
  -15.7186  -34.6004   -9.9914 C   0  0  0  0  0  0  0  0  0  0  0  0
  -16.7852  -34.6576   -9.1306 C   0  0  0  0  0  0  0  0  0  0  0  0
  -17.4506  -35.8544   -9.1182 C   0  0  0  0  0  0  0  0  0  0  0  0
  -14.2197  -35.3314  -11.5647 O   0  0  0  0  0  0  0  0  0  0  0  0
  -13.7707  -35.3746  -12.8615 C   0  0  0  0  0  0  0  0  0  0  0  0
  -12.4022  -35.9549  -13.0095 C   0  0  0  0  0  0  0  0  0  0  0  0
  -11.3217  -35.1203  -12.7141 C   0  0  0  0  0  0  0  0  0  0  0  0
  -10.0196  -35.5154  -12.8053 C   0  0  0  0  0  0  0  0  0  0  0  0
   -9.7587  -36.7970  -13.2075 C   0  0  0  0  0  0  0  0  0  0  0  0
  -10.8031  -37.6433  -13.5056 C   0  0  0  0  0  0  0  0  0  0  0  0
  -12.1462  -37.2482  -13.4154 C   0  0  0  0  0  0  0  0  0  0  0  0
  -13.1738  -38.2171  -13.7532 C   0  0  0  0  0  0  0  0  0  0  0  0
  -13.0872  -39.4887  -13.2171 O   0  0  0  0  0  0  0  0  0  0  0  0
  -13.5402  -40.0623  -12.0332 C   0  0  0  0  0  0  0  0  0  0  0  0
  -14.8303  -40.3350  -11.6237 C   0  0  0  0  0  0  0  0  0  0  0  0
  -14.9749  -40.9057  -10.3843 C   0  0  0  0  0  0  0  0  0  0  0  0
  -13.8124  -41.1857   -9.6073 C   0  0  0  0  0  0  0  0  0  0  0  0
  -12.5401  -40.9090  -10.0353 C   0  0  0  0  0  0  0  0  0  0  0  0
  -11.3790  -41.2299   -9.1707 C   0  0  0  0  0  0  0  0  0  0  0  0
  -12.4494  -40.3573  -11.2306 N   0  0  0  0  0  0  0  0  0  0  0  0
  -16.1755  -41.2788   -9.6114 C   0  0  0  0  0  0  0  0  0  0  0  0
  -16.1511  -42.4739   -9.0833 O   0  0  0  0  0  0  0  0  0  0  0  0
  -17.3639  -40.4982   -9.3620 N   0  0  0  0  0  0  0  0  0  0  0  0
  1  2  1  0
  2  3  1  0
  2  4  1  0
  4  5  2  0
  5  6  1  0
  6  7  2  0
  7  8  1  0
  8  9  2  0
  6 10  1  0
 10 11  1  0
 11 12  1  0
 10 13  1  0
 13 14  1  0
 14 15  1  0
 15 16  1  1
 15 17  1  0
 17 18  1  6
 18 19  1  0
 19 20  2  0
 20 21  1  0
 21 22  2  0
 22 23  1  0
 23 24  2  0
 21 25  1  0
 25 26  1  0
 26 27  1  0
 27 28  2  0
 28 29  1  0
 29 30  2  0
 30 31  1  0
 31 32  2  0
 32 33  1  0
 33 34  1  0
 34 35  1  0
 35 36  2  0
 36 37  1  0
 37 38  2  0
 38 39  1  0
 39 40  1  0
 39 41  2  0
 37 42  1  0
 42 43  2  0
 42 44  1  0
  9  4  1  0
 12 10  1  0
 24 19  1  0
 32 27  1  0
 41 35  1  0
 44 17  1  0
M  END
$$$$
