
     RDKit          3D

 44 49  0  0  0  0  0  0  0  0999 V2000
  -23.3940  -43.3967   -3.8542 C   0  0  0  0  0  0  0  0  0  0  0  0
  -22.7851  -43.3000   -5.2270 C   0  0  0  0  0  0  0  0  0  0  0  0
  -23.5731  -44.2006   -6.1615 C   0  0  0  0  0  0  0  0  0  0  0  0
  -22.7664  -41.8915   -5.6943 C   0  0  0  0  0  0  0  0  0  0  0  0
  -21.6422  -41.3693   -6.2792 C   0  0  0  0  0  0  0  0  0  0  0  0
  -21.5712  -40.0519   -6.7305 C   0  0  0  0  0  0  0  0  0  0  0  0
  -22.6548  -39.2356   -6.5929 C   0  0  0  0  0  0  0  0  0  0  0  0
  -23.8082  -39.7395   -6.0032 C   0  0  0  0  0  0  0  0  0  0  0  0
  -23.8471  -41.0457   -5.5670 C   0  0  0  0  0  0  0  0  0  0  0  0
  -20.3065  -39.5894   -7.3507 C   0  0  0  0  0  0  0  0  0  0  0  0
  -20.0952  -38.1169   -7.5827 C   0  0  0  0  0  0  0  0  0  0  0  0
  -20.4657  -39.0583   -8.7318 C   0  0  0  0  0  0  0  0  0  0  0  0
  -19.1263  -40.3949   -7.0341 N   0  0  0  0  0  0  0  0  0  0  0  0
  -18.0779  -39.5762   -6.4598 C   0  0  0  0  0  0  0  0  0  0  0  0
  -17.7173  -38.4221   -7.3624 C   0  0  1  0  0  0  0  0  0  0  0  0
  -16.6804  -37.7318   -6.7164 O   0  0  0  0  0  0  0  0  0  0  0  0
  -17.1585  -38.8862   -8.6828 C   0  0  2  0  0  0  0  0  0  0  0  0
  -17.8416  -38.1585   -9.8167 C   0  0  0  0  0  0  0  0  0  0  0  0
  -16.9404  -37.1537  -10.4958 C   0  0  0  0  0  0  0  0  0  0  0  0
  -15.9204  -37.3482  -11.3792 C   0  0  0  0  0  0  0  0  0  0  0  0
  -15.2208  -36.2443  -11.8499 C   0  0  0  0  0  0  0  0  0  0  0  0
  -15.5858  -34.9603  -11.4007 C   0  0  0  0  0  0  0  0  0  0  0  0
  -16.6049  -34.7226  -10.5136 C   0  0  0  0  0  0  0  0  0  0  0  0
  -17.2630  -35.8426  -10.0802 C   0  0  0  0  0  0  0  0  0  0  0  0
  -14.1691  -36.1797  -12.7283 O   0  0  0  0  0  0  0  0  0  0  0  0
  -13.7894  -36.6455  -13.9628 C   0  0  0  0  0  0  0  0  0  0  0  0
  -12.4279  -37.2597  -13.9858 C   0  0  0  0  0  0  0  0  0  0  0  0
  -11.3373  -36.3882  -14.0326 C   0  0  0  0  0  0  0  0  0  0  0  0
  -10.0400  -36.8079  -14.0585 C   0  0  0  0  0  0  0  0  0  0  0  0
   -9.7947  -38.1540  -14.0373 C   0  0  0  0  0  0  0  0  0  0  0  0
  -10.8493  -39.0380  -13.9911 C   0  0  0  0  0  0  0  0  0  0  0  0
  -12.1876  -38.6179  -13.9641 C   0  0  0  0  0  0  0  0  0  0  0  0
  -13.2271  -39.6309  -13.9165 C   0  0  0  0  0  0  0  0  0  0  0  0
  -13.1060  -40.6618  -13.0031 O   0  0  0  0  0  0  0  0  0  0  0  0
  -13.4928  -40.8161  -11.6755 C   0  0  0  0  0  0  0  0  0  0  0  0
  -14.7580  -40.9254  -11.1336 C   0  0  0  0  0  0  0  0  0  0  0  0
  -14.8338  -41.0628   -9.7704 C   0  0  0  0  0  0  0  0  0  0  0  0
  -13.6304  -41.0913   -9.0059 C   0  0  0  0  0  0  0  0  0  0  0  0
  -12.3840  -40.9840   -9.5657 C   0  0  0  0  0  0  0  0  0  0  0  0
  -11.1770  -41.0227   -8.7052 C   0  0  0  0  0  0  0  0  0  0  0  0
  -12.3595  -40.8495  -10.8783 N   0  0  0  0  0  0  0  0  0  0  0  0
  -15.9899  -41.1508   -8.8573 C   0  0  0  0  0  0  0  0  0  0  0  0
  -15.9318  -42.1112   -7.9730 O   0  0  0  0  0  0  0  0  0  0  0  0
  -17.1671  -40.3165   -8.8127 N   0  0  0  0  0  0  0  0  0  0  0  0
  1  2  1  0
  2  3  1  0
  2  4  1  0
  4  5  2  0
  5  6  1  0
  6  7  2  0
  7  8  1  0
  8  9  2  0
  6 10  1  0
 10 11  1  0
 11 12  1  0
 10 13  1  0
 13 14  1  0
 14 15  1  0
 15 16  1  1
 15 17  1  0
 17 18  1  6
 18 19  1  0
 19 20  2  0
 20 21  1  0
 21 22  2  0
 22 23  1  0
 23 24  2  0
 21 25  1  0
 25 26  1  0
 26 27  1  0
 27 28  2  0
 28 29  1  0
 29 30  2  0
 30 31  1  0
 31 32  2  0
 32 33  1  0
 33 34  1  0
 34 35  1  0
 35 36  2  0
 36 37  1  0
 37 38  2  0
 38 39  1  0
 39 40  1  0
 39 41  2  0
 37 42  1  0
 42 43  2  0
 42 44  1  0
  9  4  1  0
 12 10  1  0
 24 19  1  0
 32 27  1  0
 41 35  1  0
 44 17  1  0
M  END
$$$$
