
     RDKit          3D

 44 49  0  0  0  0  0  0  0  0999 V2000
  -14.0357  -35.0072  -13.5346 C   0  0  0  0  0  0  0  0  0  0  0  0
  -14.5540  -34.2180  -12.3627 C   0  0  0  0  0  0  0  0  0  0  0  0
  -14.2297  -32.7530  -12.5949 C   0  0  0  0  0  0  0  0  0  0  0  0
  -16.0093  -34.4449  -12.1802 C   0  0  0  0  0  0  0  0  0  0  0  0
  -16.4600  -35.3466  -11.2516 C   0  0  0  0  0  0  0  0  0  0  0  0
  -17.8154  -35.6001  -11.0444 C   0  0  0  0  0  0  0  0  0  0  0  0
  -18.7444  -34.9326  -11.7866 C   0  0  0  0  0  0  0  0  0  0  0  0
  -18.3150  -34.0123  -12.7356 C   0  0  0  0  0  0  0  0  0  0  0  0
  -16.9685  -33.7842  -12.9169 C   0  0  0  0  0  0  0  0  0  0  0  0
  -18.1939  -36.5945  -10.0120 C   0  0  0  0  0  0  0  0  0  0  0  0
  -19.6497  -36.9067   -9.7887 C   0  0  0  0  0  0  0  0  0  0  0  0
  -18.8715  -36.0084   -8.8236 C   0  0  0  0  0  0  0  0  0  0  0  0
  -17.2361  -37.6834   -9.8150 N   0  0  0  0  0  0  0  0  0  0  0  0
  -17.2359  -38.1315   -8.4371 C   0  0  0  0  0  0  0  0  0  0  0  0
  -16.1039  -39.0915   -8.1656 C   0  0  1  0  0  0  0  0  0  0  0  0
  -16.2800  -39.5382   -6.8470 O   0  0  0  0  0  0  0  0  0  0  0  0
  -16.1753  -40.3165   -9.0405 C   0  0  2  0  0  0  0  0  0  0  0  0
  -14.8223  -40.9855   -9.1030 C   0  0  0  0  0  0  0  0  0  0  0  0
  -14.7786  -42.2919   -8.3450 C   0  0  0  0  0  0  0  0  0  0  0  0
  -15.2784  -43.5155   -8.6788 C   0  0  0  0  0  0  0  0  0  0  0  0
  -15.1233  -44.5695   -7.7872 C   0  0  0  0  0  0  0  0  0  0  0  0
  -14.4559  -44.3419   -6.5680 C   0  0  0  0  0  0  0  0  0  0  0  0
  -13.9390  -43.1271   -6.1954 C   0  0  0  0  0  0  0  0  0  0  0  0
  -14.1176  -42.1219   -7.1081 C   0  0  0  0  0  0  0  0  0  0  0  0
  -15.5333  -45.8745   -7.8897 O   0  0  0  0  0  0  0  0  0  0  0  0
  -15.5030  -46.9289   -8.7685 C   0  0  0  0  0  0  0  0  0  0  0  0
  -16.8318  -47.5768   -8.9833 C   0  0  0  0  0  0  0  0  0  0  0  0
  -17.2705  -48.4694   -8.0025 C   0  0  0  0  0  0  0  0  0  0  0  0
  -18.4604  -49.1324   -8.0674 C   0  0  0  0  0  0  0  0  0  0  0  0
  -19.2666  -48.9109   -9.1507 C   0  0  0  0  0  0  0  0  0  0  0  0
  -18.8613  -48.0364  -10.1339 C   0  0  0  0  0  0  0  0  0  0  0  0
  -17.6398  -47.3487  -10.0779 C   0  0  0  0  0  0  0  0  0  0  0  0
  -17.3049  -46.4486  -11.1672 C   0  0  0  0  0  0  0  0  0  0  0  0
  -18.2600  -45.5464  -11.5983 O   0  0  0  0  0  0  0  0  0  0  0  0
  -18.6041  -44.2560  -11.2082 C   0  0  0  0  0  0  0  0  0  0  0  0
  -17.9014  -43.0760  -11.3498 C   0  0  0  0  0  0  0  0  0  0  0  0
  -18.4961  -41.9425  -10.8556 C   0  0  0  0  0  0  0  0  0  0  0  0
  -19.7801  -42.0409  -10.2431 C   0  0  0  0  0  0  0  0  0  0  0  0
  -20.4613  -43.2233  -10.1159 C   0  0  0  0  0  0  0  0  0  0  0  0
  -21.7944  -43.2468   -9.4669 C   0  0  0  0  0  0  0  0  0  0  0  0
  -19.8498  -44.2871  -10.6014 N   0  0  0  0  0  0  0  0  0  0  0  0
  -18.0301  -40.5440  -10.7817 C   0  0  0  0  0  0  0  0  0  0  0  0
  -18.8917  -39.6461  -11.1808 O   0  0  0  0  0  0  0  0  0  0  0  0
  -16.7556  -40.0430  -10.3254 N   0  0  0  0  0  0  0  0  0  0  0  0
  1  2  1  0
  2  3  1  0
  2  4  1  0
  4  5  2  0
  5  6  1  0
  6  7  2  0
  7  8  1  0
  8  9  2  0
  6 10  1  0
 10 11  1  0
 11 12  1  0
 10 13  1  0
 13 14  1  0
 14 15  1  0
 15 16  1  1
 15 17  1  0
 17 18  1  6
 18 19  1  0
 19 20  2  0
 20 21  1  0
 21 22  2  0
 22 23  1  0
 23 24  2  0
 21 25  1  0
 25 26  1  0
 26 27  1  0
 27 28  2  0
 28 29  1  0
 29 30  2  0
 30 31  1  0
 31 32  2  0
 32 33  1  0
 33 34  1  0
 34 35  1  0
 35 36  2  0
 36 37  1  0
 37 38  2  0
 38 39  1  0
 39 40  1  0
 39 41  2  0
 37 42  1  0
 42 43  2  0
 42 44  1  0
  9  4  1  0
 12 10  1  0
 24 19  1  0
 32 27  1  0
 41 35  1  0
 44 17  1  0
M  END
$$$$
