
     RDKit          3D

 44 49  0  0  0  0  0  0  0  0999 V2000
  -20.5770  -41.5664   -2.4504 C   0  0  0  0  0  0  0  0  0  0  0  0
  -21.8849  -41.9394   -3.0948 C   0  0  0  0  0  0  0  0  0  0  0  0
  -23.0054  -41.2709   -2.3184 C   0  0  0  0  0  0  0  0  0  0  0  0
  -21.8921  -41.5537   -4.5279 C   0  0  0  0  0  0  0  0  0  0  0  0
  -21.7207  -40.2443   -4.8950 C   0  0  0  0  0  0  0  0  0  0  0  0
  -21.7242  -39.8290   -6.2261 C   0  0  0  0  0  0  0  0  0  0  0  0
  -21.9036  -40.7494   -7.2161 C   0  0  0  0  0  0  0  0  0  0  0  0
  -22.0798  -42.0845   -6.8720 C   0  0  0  0  0  0  0  0  0  0  0  0
  -22.0717  -42.4634   -5.5475 C   0  0  0  0  0  0  0  0  0  0  0  0
  -21.5276  -38.3877   -6.5124 C   0  0  0  0  0  0  0  0  0  0  0  0
  -22.4243  -37.3761   -5.8497 C   0  0  0  0  0  0  0  0  0  0  0  0
  -22.6198  -37.7733   -7.3152 C   0  0  0  0  0  0  0  0  0  0  0  0
  -20.1447  -37.9879   -6.7761 N   0  0  0  0  0  0  0  0  0  0  0  0
  -19.2180  -39.0250   -6.3698 C   0  0  0  0  0  0  0  0  0  0  0  0
  -17.8225  -38.7515   -6.8741 C   0  0  1  0  0  0  0  0  0  0  0  0
  -16.9671  -39.5611   -6.1113 O   0  0  0  0  0  0  0  0  0  0  0  0
  -17.6424  -39.1789   -8.3081 C   0  0  2  0  0  0  0  0  0  0  0  0
  -18.1955  -38.1220   -9.2348 C   0  0  0  0  0  0  0  0  0  0  0  0
  -17.1155  -37.3680   -9.9753 C   0  0  0  0  0  0  0  0  0  0  0  0
  -16.3541  -37.7486  -11.0401 C   0  0  0  0  0  0  0  0  0  0  0  0
  -15.3996  -36.8672  -11.5316 C   0  0  0  0  0  0  0  0  0  0  0  0
  -15.2479  -35.6096  -10.9158 C   0  0  0  0  0  0  0  0  0  0  0  0
  -15.9936  -35.1892   -9.8438 C   0  0  0  0  0  0  0  0  0  0  0  0
  -16.9200  -36.0937   -9.3977 C   0  0  0  0  0  0  0  0  0  0  0  0
  -14.5214  -37.0153  -12.5750 O   0  0  0  0  0  0  0  0  0  0  0  0
  -14.4967  -37.3997  -13.8928 C   0  0  0  0  0  0  0  0  0  0  0  0
  -13.4360  -38.4023  -14.2114 C   0  0  0  0  0  0  0  0  0  0  0  0
  -12.1351  -37.9214  -14.3773 C   0  0  0  0  0  0  0  0  0  0  0  0
  -11.0698  -38.7207  -14.6705 C   0  0  0  0  0  0  0  0  0  0  0  0
  -11.2876  -40.0645  -14.8092 C   0  0  0  0  0  0  0  0  0  0  0  0
  -12.5593  -40.5683  -14.6514 C   0  0  0  0  0  0  0  0  0  0  0  0
  -13.6626  -39.7560  -14.3497 C   0  0  0  0  0  0  0  0  0  0  0  0
  -14.9629  -40.3858  -14.2043 C   0  0  0  0  0  0  0  0  0  0  0  0
  -15.0659  -41.5193  -13.4192 O   0  0  0  0  0  0  0  0  0  0  0  0
  -15.2911  -41.7277  -12.0621 C   0  0  0  0  0  0  0  0  0  0  0  0
  -16.4306  -41.5072  -11.3143 C   0  0  0  0  0  0  0  0  0  0  0  0
  -16.3554  -41.8027   -9.9764 C   0  0  0  0  0  0  0  0  0  0  0  0
  -15.1358  -42.3157   -9.4446 C   0  0  0  0  0  0  0  0  0  0  0  0
  -14.0170  -42.5296  -10.2068 C   0  0  0  0  0  0  0  0  0  0  0  0
  -12.7839  -43.0666   -9.5823 C   0  0  0  0  0  0  0  0  0  0  0  0
  -14.1339  -42.2277  -11.4861 N   0  0  0  0  0  0  0  0  0  0  0  0
  -17.3339  -41.6485   -8.8824 C   0  0  0  0  0  0  0  0  0  0  0  0
  -17.4760  -42.6919   -8.1085 O   0  0  0  0  0  0  0  0  0  0  0  0
  -18.1462  -40.5006   -8.5567 N   0  0  0  0  0  0  0  0  0  0  0  0
  1  2  1  0
  2  3  1  0
  2  4  1  0
  4  5  2  0
  5  6  1  0
  6  7  2  0
  7  8  1  0
  8  9  2  0
  6 10  1  0
 10 11  1  0
 11 12  1  0
 10 13  1  0
 13 14  1  0
 14 15  1  0
 15 16  1  1
 15 17  1  0
 17 18  1  6
 18 19  1  0
 19 20  2  0
 20 21  1  0
 21 22  2  0
 22 23  1  0
 23 24  2  0
 21 25  1  0
 25 26  1  0
 26 27  1  0
 27 28  2  0
 28 29  1  0
 29 30  2  0
 30 31  1  0
 31 32  2  0
 32 33  1  0
 33 34  1  0
 34 35  1  0
 35 36  2  0
 36 37  1  0
 37 38  2  0
 38 39  1  0
 39 40  1  0
 39 41  2  0
 37 42  1  0
 42 43  2  0
 42 44  1  0
  9  4  1  0
 12 10  1  0
 24 19  1  0
 32 27  1  0
 41 35  1  0
 44 17  1  0
M  END
$$$$
