
     RDKit          3D

 44 49  0  0  0  0  0  0  0  0999 V2000
  -10.2772  -35.6449  -11.9517 C   0  0  0  0  0  0  0  0  0  0  0  0
  -11.7637  -35.6798  -11.7189 C   0  0  0  0  0  0  0  0  0  0  0  0
  -12.4086  -34.6279  -12.6038 C   0  0  0  0  0  0  0  0  0  0  0  0
  -12.3038  -37.0369  -11.9816 C   0  0  0  0  0  0  0  0  0  0  0  0
  -12.5167  -37.9112  -10.9477 C   0  0  0  0  0  0  0  0  0  0  0  0
  -13.0175  -39.1981  -11.1411 C   0  0  0  0  0  0  0  0  0  0  0  0
  -13.3134  -39.6208  -12.4033 C   0  0  0  0  0  0  0  0  0  0  0  0
  -13.1072  -38.7543  -13.4705 C   0  0  0  0  0  0  0  0  0  0  0  0
  -12.6108  -37.4889  -13.2469 C   0  0  0  0  0  0  0  0  0  0  0  0
  -13.2118  -40.0619   -9.9519 C   0  0  0  0  0  0  0  0  0  0  0  0
  -12.0441  -40.3365   -9.0422 C   0  0  0  0  0  0  0  0  0  0  0  0
  -12.5354  -41.3843  -10.0445 C   0  0  0  0  0  0  0  0  0  0  0  0
  -14.5381  -39.9869   -9.3375 N   0  0  0  0  0  0  0  0  0  0  0  0
  -14.9419  -38.6094   -9.1409 C   0  0  0  0  0  0  0  0  0  0  0  0
  -16.4421  -38.4574   -9.1952 C   0  0  1  0  0  0  0  0  0  0  0  0
  -16.8708  -39.2162  -10.2950 O   0  0  0  0  0  0  0  0  0  0  0  0
  -17.1175  -39.0482   -7.9844 C   0  0  2  0  0  0  0  0  0  0  0  0
  -17.7999  -37.9587   -7.1912 C   0  0  0  0  0  0  0  0  0  0  0  0
  -19.3066  -38.0181   -7.2892 C   0  0  0  0  0  0  0  0  0  0  0  0
  -20.1911  -38.8617   -6.6856 C   0  0  0  0  0  0  0  0  0  0  0  0
  -21.5457  -38.7219   -6.9600 C   0  0  0  0  0  0  0  0  0  0  0  0
  -21.9628  -37.7148   -7.8519 C   0  0  0  0  0  0  0  0  0  0  0  0
  -21.1054  -36.8467   -8.4788 C   0  0  0  0  0  0  0  0  0  0  0  0
  -19.7822  -37.0257   -8.1750 C   0  0  0  0  0  0  0  0  0  0  0  0
  -22.6163  -39.4380   -6.4880 O   0  0  0  0  0  0  0  0  0  0  0  0
  -23.1480  -39.8950   -5.3076 C   0  0  0  0  0  0  0  0  0  0  0  0
  -23.5047  -41.3455   -5.3253 C   0  0  0  0  0  0  0  0  0  0  0  0
  -24.7052  -41.6980   -5.9466 C   0  0  0  0  0  0  0  0  0  0  0  0
  -25.1563  -42.9818   -6.0369 C   0  0  0  0  0  0  0  0  0  0  0  0
  -24.3922  -43.9764   -5.4898 C   0  0  0  0  0  0  0  0  0  0  0  0
  -23.2038  -43.6600   -4.8707 C   0  0  0  0  0  0  0  0  0  0  0  0
  -22.7295  -42.3433   -4.7719 C   0  0  0  0  0  0  0  0  0  0  0  0
  -21.4636  -42.1155   -4.0979 C   0  0  0  0  0  0  0  0  0  0  0  0
  -20.3837  -42.9128   -4.4296 O   0  0  0  0  0  0  0  0  0  0  0  0
  -19.3912  -42.8262   -5.4009 C   0  0  0  0  0  0  0  0  0  0  0  0
  -18.3451  -41.9322   -5.5142 C   0  0  0  0  0  0  0  0  0  0  0  0
  -17.5171  -42.0880   -6.5971 C   0  0  0  0  0  0  0  0  0  0  0  0
  -17.7716  -43.1436   -7.5215 C   0  0  0  0  0  0  0  0  0  0  0  0
  -18.8151  -44.0219   -7.3876 C   0  0  0  0  0  0  0  0  0  0  0  0
  -19.0157  -45.0959   -8.3901 C   0  0  0  0  0  0  0  0  0  0  0  0
  -19.5870  -43.8318   -6.3343 N   0  0  0  0  0  0  0  0  0  0  0  0
  -16.3557  -41.3055   -7.0632 C   0  0  0  0  0  0  0  0  0  0  0  0
  -15.3026  -42.0078   -7.3878 O   0  0  0  0  0  0  0  0  0  0  0  0
  -16.2348  -39.8745   -7.2093 N   0  0  0  0  0  0  0  0  0  0  0  0
  1  2  1  0
  2  3  1  0
  2  4  1  0
  4  5  2  0
  5  6  1  0
  6  7  2  0
  7  8  1  0
  8  9  2  0
  6 10  1  0
 10 11  1  0
 11 12  1  0
 10 13  1  0
 13 14  1  0
 14 15  1  0
 15 16  1  6
 15 17  1  0
 17 18  1  1
 18 19  1  0
 19 20  2  0
 20 21  1  0
 21 22  2  0
 22 23  1  0
 23 24  2  0
 21 25  1  0
 25 26  1  0
 26 27  1  0
 27 28  2  0
 28 29  1  0
 29 30  2  0
 30 31  1  0
 31 32  2  0
 32 33  1  0
 33 34  1  0
 34 35  1  0
 35 36  2  0
 36 37  1  0
 37 38  2  0
 38 39  1  0
 39 40  1  0
 39 41  2  0
 37 42  1  0
 42 43  2  0
 42 44  1  0
  9  4  1  0
 12 10  1  0
 24 19  1  0
 32 27  1  0
 41 35  1  0
 44 17  1  0
M  END
$$$$
