
     RDKit          3D

 44 49  0  0  0  0  0  0  0  0999 V2000
  -20.2157  -45.5887   -3.0809 C   0  0  0  0  0  0  0  0  0  0  0  0
  -20.0472  -45.0998   -4.4942 C   0  0  0  0  0  0  0  0  0  0  0  0
  -19.7875  -46.3014   -5.3854 C   0  0  0  0  0  0  0  0  0  0  0  0
  -21.2398  -44.3307   -4.9286 C   0  0  0  0  0  0  0  0  0  0  0  0
  -21.3301  -42.9872   -4.6727 C   0  0  0  0  0  0  0  0  0  0  0  0
  -22.4301  -42.2203   -5.0550 C   0  0  0  0  0  0  0  0  0  0  0  0
  -23.4672  -42.8144   -5.7115 C   0  0  0  0  0  0  0  0  0  0  0  0
  -23.4017  -44.1758   -5.9840 C   0  0  0  0  0  0  0  0  0  0  0  0
  -22.3012  -44.9064   -5.5930 C   0  0  0  0  0  0  0  0  0  0  0  0
  -22.4246  -40.7738   -4.7302 C   0  0  0  0  0  0  0  0  0  0  0  0
  -23.7344  -40.0427   -4.6016 C   0  0  0  0  0  0  0  0  0  0  0  0
  -22.8617  -39.8978   -5.8511 C   0  0  0  0  0  0  0  0  0  0  0  0
  -21.3224  -40.3316   -3.8749 N   0  0  0  0  0  0  0  0  0  0  0  0
  -20.0511  -40.8133   -4.3759 C   0  0  0  0  0  0  0  0  0  0  0  0
  -19.3565  -39.7728   -5.2195 C   0  0  1  0  0  0  0  0  0  0  0  0
  -17.9805  -39.9935   -5.0551 O   0  0  0  0  0  0  0  0  0  0  0  0
  -19.6409  -39.9500   -6.6888 C   0  0  2  0  0  0  0  0  0  0  0  0
  -20.6808  -38.9502   -7.1372 C   0  0  0  0  0  0  0  0  0  0  0  0
  -20.1077  -37.8620   -8.0150 C   0  0  0  0  0  0  0  0  0  0  0  0
  -19.7352  -37.8992   -9.3259 C   0  0  0  0  0  0  0  0  0  0  0  0
  -19.2085  -36.7524   -9.9065 C   0  0  0  0  0  0  0  0  0  0  0  0
  -19.0755  -35.5886   -9.1244 C   0  0  0  0  0  0  0  0  0  0  0  0
  -19.4383  -35.5103   -7.8037 C   0  0  0  0  0  0  0  0  0  0  0  0
  -19.9519  -36.6663   -7.2790 C   0  0  0  0  0  0  0  0  0  0  0  0
  -18.7645  -36.5402  -11.1870 O   0  0  0  0  0  0  0  0  0  0  0  0
  -19.1559  -36.7299  -12.4893 C   0  0  0  0  0  0  0  0  0  0  0  0
  -18.1216  -37.3882  -13.3427 C   0  0  0  0  0  0  0  0  0  0  0  0
  -17.0855  -36.5832  -13.8219 C   0  0  0  0  0  0  0  0  0  0  0  0
  -16.0750  -37.0486  -14.6107 C   0  0  0  0  0  0  0  0  0  0  0  0
  -16.0770  -38.3742  -14.9500 C   0  0  0  0  0  0  0  0  0  0  0  0
  -17.0851  -39.1930  -14.4927 C   0  0  0  0  0  0  0  0  0  0  0  0
  -18.1294  -38.7256  -13.6809 C   0  0  0  0  0  0  0  0  0  0  0  0
  -19.1451  -39.6708  -13.2522 C   0  0  0  0  0  0  0  0  0  0  0  0
  -18.7412  -40.8876  -12.7346 O   0  0  0  0  0  0  0  0  0  0  0  0
  -18.4090  -41.3219  -11.4552 C   0  0  0  0  0  0  0  0  0  0  0  0
  -19.2131  -41.4903  -10.3455 C   0  0  0  0  0  0  0  0  0  0  0  0
  -18.5981  -41.9313   -9.2010 C   0  0  0  0  0  0  0  0  0  0  0  0
  -17.1962  -42.1922   -9.2206 C   0  0  0  0  0  0  0  0  0  0  0  0
  -16.4174  -42.0207  -10.3353 C   0  0  0  0  0  0  0  0  0  0  0  0
  -14.9649  -42.3136  -10.2792 C   0  0  0  0  0  0  0  0  0  0  0  0
  -17.0502  -41.5916  -11.4109 N   0  0  0  0  0  0  0  0  0  0  0  0
  -19.1159  -42.1691   -7.8395 C   0  0  0  0  0  0  0  0  0  0  0  0
  -18.7685  -43.3076   -7.3004 O   0  0  0  0  0  0  0  0  0  0  0  0
  -19.9480  -41.3107   -7.0306 N   0  0  0  0  0  0  0  0  0  0  0  0
  1  2  1  0
  2  3  1  0
  2  4  1  0
  4  5  2  0
  5  6  1  0
  6  7  2  0
  7  8  1  0
  8  9  2  0
  6 10  1  0
 10 11  1  0
 11 12  1  0
 10 13  1  0
 13 14  1  0
 14 15  1  0
 15 16  1  6
 15 17  1  0
 17 18  1  1
 18 19  1  0
 19 20  2  0
 20 21  1  0
 21 22  2  0
 22 23  1  0
 23 24  2  0
 21 25  1  0
 25 26  1  0
 26 27  1  0
 27 28  2  0
 28 29  1  0
 29 30  2  0
 30 31  1  0
 31 32  2  0
 32 33  1  0
 33 34  1  0
 34 35  1  0
 35 36  2  0
 36 37  1  0
 37 38  2  0
 38 39  1  0
 39 40  1  0
 39 41  2  0
 37 42  1  0
 42 43  2  0
 42 44  1  0
  9  4  1  0
 12 10  1  0
 24 19  1  0
 32 27  1  0
 41 35  1  0
 44 17  1  0
M  END
$$$$
