
     RDKit          3D

 44 49  0  0  0  0  0  0  0  0999 V2000
  -19.2097  -42.4576   -0.5241 C   0  0  0  0  0  0  0  0  0  0  0  0
  -20.4606  -41.6497   -0.7421 C   0  0  0  0  0  0  0  0  0  0  0  0
  -20.0560  -40.2650   -1.2158 C   0  0  0  0  0  0  0  0  0  0  0  0
  -21.3614  -42.3280   -1.7069 C   0  0  0  0  0  0  0  0  0  0  0  0
  -21.3365  -41.9903   -3.0350 C   0  0  0  0  0  0  0  0  0  0  0  0
  -22.1648  -42.5933   -3.9808 C   0  0  0  0  0  0  0  0  0  0  0  0
  -23.0413  -43.5606   -3.5864 C   0  0  0  0  0  0  0  0  0  0  0  0
  -23.0874  -43.9227   -2.2451 C   0  0  0  0  0  0  0  0  0  0  0  0
  -22.2562  -43.3080   -1.3347 C   0  0  0  0  0  0  0  0  0  0  0  0
  -22.0546  -42.1541   -5.3925 C   0  0  0  0  0  0  0  0  0  0  0  0
  -22.4697  -43.0957   -6.4915 C   0  0  0  0  0  0  0  0  0  0  0  0
  -20.9933  -42.8547   -6.1657 C   0  0  0  0  0  0  0  0  0  0  0  0
  -22.2672  -40.7238   -5.6184 N   0  0  0  0  0  0  0  0  0  0  0  0
  -21.0720  -39.9660   -5.3080 C   0  0  0  0  0  0  0  0  0  0  0  0
  -20.8389  -38.8618   -6.3095 C   0  0  1  0  0  0  0  0  0  0  0  0
  -20.0524  -37.9017   -5.6546 O   0  0  0  0  0  0  0  0  0  0  0  0
  -20.0349  -39.3302   -7.4951 C   0  0  2  0  0  0  0  0  0  0  0  0
  -20.7803  -39.0312   -8.7745 C   0  0  0  0  0  0  0  0  0  0  0  0
  -20.1483  -37.9159   -9.5744 C   0  0  0  0  0  0  0  0  0  0  0  0
  -19.0304  -37.9221  -10.3547 C   0  0  0  0  0  0  0  0  0  0  0  0
  -18.6407  -36.7434  -10.9778 C   0  0  0  0  0  0  0  0  0  0  0  0
  -19.4108  -35.5801  -10.7845 C   0  0  0  0  0  0  0  0  0  0  0  0
  -20.5408  -35.5324  -10.0083 C   0  0  0  0  0  0  0  0  0  0  0  0
  -20.8825  -36.7193   -9.4167 C   0  0  0  0  0  0  0  0  0  0  0  0
  -17.5692  -36.4957  -11.7979 O   0  0  0  0  0  0  0  0  0  0  0  0
  -16.9440  -37.0073  -12.9081 C   0  0  0  0  0  0  0  0  0  0  0  0
  -15.4675  -37.1702  -12.7504 C   0  0  0  0  0  0  0  0  0  0  0  0
  -14.6817  -36.0244  -12.8953 C   0  0  0  0  0  0  0  0  0  0  0  0
  -13.3230  -36.0247  -12.7785 C   0  0  0  0  0  0  0  0  0  0  0  0
  -12.6972  -37.2104  -12.5048 C   0  0  0  0  0  0  0  0  0  0  0  0
  -13.4450  -38.3570  -12.3563 C   0  0  0  0  0  0  0  0  0  0  0  0
  -14.8429  -38.3688  -12.4742 C   0  0  0  0  0  0  0  0  0  0  0  0
  -15.5385  -39.6316  -12.3007 C   0  0  0  0  0  0  0  0  0  0  0  0
  -15.2156  -40.4217  -11.2129 O   0  0  0  0  0  0  0  0  0  0  0  0
  -15.6753  -40.4803   -9.9010 C   0  0  0  0  0  0  0  0  0  0  0  0
  -16.9017  -40.8874   -9.4147 C   0  0  0  0  0  0  0  0  0  0  0  0
  -17.0745  -40.8293   -8.0547 C   0  0  0  0  0  0  0  0  0  0  0  0
  -16.0015  -40.3689   -7.2360 C   0  0  0  0  0  0  0  0  0  0  0  0
  -14.7906  -39.9722   -7.7405 C   0  0  0  0  0  0  0  0  0  0  0  0
  -13.7212  -39.5056   -6.8253 C   0  0  0  0  0  0  0  0  0  0  0  0
  -14.6709  -40.0411   -9.0529 N   0  0  0  0  0  0  0  0  0  0  0  0
  -18.2420  -41.1255   -7.2017 C   0  0  0  0  0  0  0  0  0  0  0  0
  -17.9965  -41.8732   -6.1585 O   0  0  0  0  0  0  0  0  0  0  0  0
  -19.6101  -40.6961   -7.3679 N   0  0  0  0  0  0  0  0  0  0  0  0
  1  2  1  0
  2  3  1  0
  2  4  1  0
  4  5  2  0
  5  6  1  0
  6  7  2  0
  7  8  1  0
  8  9  2  0
  6 10  1  0
 10 11  1  0
 11 12  1  0
 10 13  1  0
 13 14  1  0
 14 15  1  0
 15 16  1  1
 15 17  1  0
 17 18  1  6
 18 19  1  0
 19 20  2  0
 20 21  1  0
 21 22  2  0
 22 23  1  0
 23 24  2  0
 21 25  1  0
 25 26  1  0
 26 27  1  0
 27 28  2  0
 28 29  1  0
 29 30  2  0
 30 31  1  0
 31 32  2  0
 32 33  1  0
 33 34  1  0
 34 35  1  0
 35 36  2  0
 36 37  1  0
 37 38  2  0
 38 39  1  0
 39 40  1  0
 39 41  2  0
 37 42  1  0
 42 43  2  0
 42 44  1  0
  9  4  1  0
 12 10  1  0
 24 19  1  0
 32 27  1  0
 41 35  1  0
 44 17  1  0
M  END
$$$$
