
     RDKit          3D

 44 49  0  0  0  0  0  0  0  0999 V2000
  -23.4019  -43.0476   -8.0638 C   0  0  0  0  0  0  0  0  0  0  0  0
  -22.5246  -44.1827   -7.6092 C   0  0  0  0  0  0  0  0  0  0  0  0
  -22.5083  -45.2380   -8.7008 C   0  0  0  0  0  0  0  0  0  0  0  0
  -21.1612  -43.6944   -7.2851 C   0  0  0  0  0  0  0  0  0  0  0  0
  -20.9458  -42.9264   -6.1706 C   0  0  0  0  0  0  0  0  0  0  0  0
  -19.6862  -42.4389   -5.8242 C   0  0  0  0  0  0  0  0  0  0  0  0
  -18.6135  -42.7284   -6.6147 C   0  0  0  0  0  0  0  0  0  0  0  0
  -18.8035  -43.5055   -7.7513 C   0  0  0  0  0  0  0  0  0  0  0  0
  -20.0606  -43.9722   -8.0669 C   0  0  0  0  0  0  0  0  0  0  0  0
  -19.5644  -41.6188   -4.5951 C   0  0  0  0  0  0  0  0  0  0  0  0
  -20.2714  -42.0608   -3.3416 C   0  0  0  0  0  0  0  0  0  0  0  0
  -20.8190  -40.9204   -4.2038 C   0  0  0  0  0  0  0  0  0  0  0  0
  -18.2873  -40.9221   -4.4350 N   0  0  0  0  0  0  0  0  0  0  0  0
  -17.3935  -41.2169   -5.5367 C   0  0  0  0  0  0  0  0  0  0  0  0
  -16.8954  -39.9566   -6.2002 C   0  0  1  0  0  0  0  0  0  0  0  0
  -15.9125  -40.3613   -7.1163 O   0  0  0  0  0  0  0  0  0  0  0  0
  -17.9711  -39.2757   -7.0068 C   0  0  2  0  0  0  0  0  0  0  0  0
  -17.7325  -37.7842   -7.0298 C   0  0  0  0  0  0  0  0  0  0  0  0
  -17.2725  -37.2848   -8.3796 C   0  0  0  0  0  0  0  0  0  0  0  0
  -17.9813  -37.0796   -9.5259 C   0  0  0  0  0  0  0  0  0  0  0  0
  -17.3124  -36.6280  -10.6566 C   0  0  0  0  0  0  0  0  0  0  0  0
  -15.9250  -36.3966  -10.5842 C   0  0  0  0  0  0  0  0  0  0  0  0
  -15.1765  -36.5905   -9.4510 C   0  0  0  0  0  0  0  0  0  0  0  0
  -15.8820  -37.0354   -8.3650 C   0  0  0  0  0  0  0  0  0  0  0  0
  -17.7942  -36.3527  -11.9111 O   0  0  0  0  0  0  0  0  0  0  0  0
  -18.8077  -35.6628  -12.5291 C   0  0  0  0  0  0  0  0  0  0  0  0
  -19.5552  -36.4647  -13.5439 C   0  0  0  0  0  0  0  0  0  0  0  0
  -18.9597  -36.6180  -14.7982 C   0  0  0  0  0  0  0  0  0  0  0  0
  -19.5271  -37.3224  -15.8188 C   0  0  0  0  0  0  0  0  0  0  0  0
  -20.7439  -37.9096  -15.6019 C   0  0  0  0  0  0  0  0  0  0  0  0
  -21.3558  -37.7762  -14.3757 C   0  0  0  0  0  0  0  0  0  0  0  0
  -20.7817  -37.0544  -13.3185 C   0  0  0  0  0  0  0  0  0  0  0  0
  -21.5093  -36.9730  -12.0644 C   0  0  0  0  0  0  0  0  0  0  0  0
  -22.0340  -38.1337  -11.5265 O   0  0  0  0  0  0  0  0  0  0  0  0
  -21.5270  -39.1090  -10.6736 C   0  0  0  0  0  0  0  0  0  0  0  0
  -21.2036  -39.0259   -9.3338 C   0  0  0  0  0  0  0  0  0  0  0  0
  -20.7101  -40.1644   -8.7481 C   0  0  0  0  0  0  0  0  0  0  0  0
  -20.5675  -41.3456   -9.5342 C   0  0  0  0  0  0  0  0  0  0  0  0
  -20.8979  -41.4062  -10.8629 C   0  0  0  0  0  0  0  0  0  0  0  0
  -20.7224  -42.6718  -11.6154 C   0  0  0  0  0  0  0  0  0  0  0  0
  -21.3643  -40.2874  -11.3847 N   0  0  0  0  0  0  0  0  0  0  0  0
  -20.2187  -40.4295   -7.3819 C   0  0  0  0  0  0  0  0  0  0  0  0
  -20.6849  -41.5138   -6.8210 O   0  0  0  0  0  0  0  0  0  0  0  0
  -19.2932  -39.6530   -6.5919 N   0  0  0  0  0  0  0  0  0  0  0  0
  1  2  1  0
  2  3  1  0
  2  4  1  0
  4  5  2  0
  5  6  1  0
  6  7  2  0
  7  8  1  0
  8  9  2  0
  6 10  1  0
 10 11  1  0
 11 12  1  0
 10 13  1  0
 13 14  1  0
 14 15  1  0
 15 16  1  6
 15 17  1  0
 17 18  1  1
 18 19  1  0
 19 20  2  0
 20 21  1  0
 21 22  2  0
 22 23  1  0
 23 24  2  0
 21 25  1  0
 25 26  1  0
 26 27  1  0
 27 28  2  0
 28 29  1  0
 29 30  2  0
 30 31  1  0
 31 32  2  0
 32 33  1  0
 33 34  1  0
 34 35  1  0
 35 36  2  0
 36 37  1  0
 37 38  2  0
 38 39  1  0
 39 40  1  0
 39 41  2  0
 37 42  1  0
 42 43  2  0
 42 44  1  0
  9  4  1  0
 12 10  1  0
 24 19  1  0
 32 27  1  0
 41 35  1  0
 44 17  1  0
M  END
$$$$
