
     RDKit          3D

 44 49  0  0  0  0  0  0  0  0999 V2000
  -13.4691  -34.8494  -12.7298 C   0  0  0  0  0  0  0  0  0  0  0  0
  -12.1312  -35.2521  -13.2889 C   0  0  0  0  0  0  0  0  0  0  0  0
  -11.0898  -34.2683  -12.7860 C   0  0  0  0  0  0  0  0  0  0  0  0
  -11.8050  -36.6502  -12.9128 C   0  0  0  0  0  0  0  0  0  0  0  0
  -12.4758  -37.2681  -11.8897 C   0  0  0  0  0  0  0  0  0  0  0  0
  -12.2045  -38.5774  -11.4940 C   0  0  0  0  0  0  0  0  0  0  0  0
  -11.2361  -39.2871  -12.1404 C   0  0  0  0  0  0  0  0  0  0  0  0
  -10.5402  -38.6848  -13.1820 C   0  0  0  0  0  0  0  0  0  0  0  0
  -10.8313  -37.3894  -13.5492 C   0  0  0  0  0  0  0  0  0  0  0  0
  -12.9916  -39.1503  -10.3758 C   0  0  0  0  0  0  0  0  0  0  0  0
  -12.2700  -39.7397   -9.1933 C   0  0  0  0  0  0  0  0  0  0  0  0
  -12.9011  -40.6316  -10.2656 C   0  0  0  0  0  0  0  0  0  0  0  0
  -14.2772  -38.4990  -10.1210 N   0  0  0  0  0  0  0  0  0  0  0  0
  -15.1806  -39.3897   -9.4211 C   0  0  0  0  0  0  0  0  0  0  0  0
  -16.2611  -38.6267   -8.6952 C   0  0  1  0  0  0  0  0  0  0  0  0
  -17.2056  -38.2677   -9.6689 O   0  0  0  0  0  0  0  0  0  0  0  0
  -16.9902  -39.4867   -7.6951 C   0  0  2  0  0  0  0  0  0  0  0  0
  -17.5719  -38.6241   -6.5999 C   0  0  0  0  0  0  0  0  0  0  0  0
  -19.0775  -38.5193   -6.6734 C   0  0  0  0  0  0  0  0  0  0  0  0
  -20.0367  -39.4222   -6.3227 C   0  0  0  0  0  0  0  0  0  0  0  0
  -21.3722  -39.0891   -6.5099 C   0  0  0  0  0  0  0  0  0  0  0  0
  -21.6937  -37.8311   -7.0556 C   0  0  0  0  0  0  0  0  0  0  0  0
  -20.7592  -36.8956   -7.4208 C   0  0  0  0  0  0  0  0  0  0  0  0
  -19.4585  -37.2719   -7.2161 C   0  0  0  0  0  0  0  0  0  0  0  0
  -22.5048  -39.8156   -6.2428 O   0  0  0  0  0  0  0  0  0  0  0  0
  -23.0785  -40.5520   -5.2360 C   0  0  0  0  0  0  0  0  0  0  0  0
  -23.5662  -41.8954   -5.6706 C   0  0  0  0  0  0  0  0  0  0  0  0
  -24.7925  -41.9420   -6.3379 C   0  0  0  0  0  0  0  0  0  0  0  0
  -25.3589  -43.0970   -6.7903 C   0  0  0  0  0  0  0  0  0  0  0  0
  -24.6900  -44.2719   -6.5790 C   0  0  0  0  0  0  0  0  0  0  0  0
  -23.4790  -44.2581   -5.9242 C   0  0  0  0  0  0  0  0  0  0  0  0
  -22.8866  -43.0762   -5.4545 C   0  0  0  0  0  0  0  0  0  0  0  0
  -21.6066  -43.1696   -4.7751 C   0  0  0  0  0  0  0  0  0  0  0  0
  -20.6033  -43.9253   -5.3533 O   0  0  0  0  0  0  0  0  0  0  0  0
  -19.6051  -43.6435   -6.2806 C   0  0  0  0  0  0  0  0  0  0  0  0
  -18.4814  -42.8516   -6.1522 C   0  0  0  0  0  0  0  0  0  0  0  0
  -17.6688  -42.7530   -7.2534 C   0  0  0  0  0  0  0  0  0  0  0  0
  -18.0167  -43.4622   -8.4406 C   0  0  0  0  0  0  0  0  0  0  0  0
  -19.1364  -44.2456   -8.5449 C   0  0  0  0  0  0  0  0  0  0  0  0
  -19.4322  -44.9540   -9.8135 C   0  0  0  0  0  0  0  0  0  0  0  0
  -19.8900  -44.3077   -7.4633 N   0  0  0  0  0  0  0  0  0  0  0  0
  -16.4398  -41.9731   -7.4976 C   0  0  0  0  0  0  0  0  0  0  0  0
  -15.4546  -42.6381   -8.0405 O   0  0  0  0  0  0  0  0  0  0  0  0
  -16.1884  -40.5791   -7.2195 N   0  0  0  0  0  0  0  0  0  0  0  0
  1  2  1  0
  2  3  1  0
  2  4  1  0
  4  5  2  0
  5  6  1  0
  6  7  2  0
  7  8  1  0
  8  9  2  0
  6 10  1  0
 10 11  1  0
 11 12  1  0
 10 13  1  0
 13 14  1  0
 14 15  1  0
 15 16  1  6
 15 17  1  0
 17 18  1  1
 18 19  1  0
 19 20  2  0
 20 21  1  0
 21 22  2  0
 22 23  1  0
 23 24  2  0
 21 25  1  0
 25 26  1  0
 26 27  1  0
 27 28  2  0
 28 29  1  0
 29 30  2  0
 30 31  1  0
 31 32  2  0
 32 33  1  0
 33 34  1  0
 34 35  1  0
 35 36  2  0
 36 37  1  0
 37 38  2  0
 38 39  1  0
 39 40  1  0
 39 41  2  0
 37 42  1  0
 42 43  2  0
 42 44  1  0
  9  4  1  0
 12 10  1  0
 24 19  1  0
 32 27  1  0
 41 35  1  0
 44 17  1  0
M  END
$$$$
