
     RDKit          3D

 44 49  0  0  0  0  0  0  0  0999 V2000
  -24.6776  -41.1161   -7.6930 C   0  0  0  0  0  0  0  0  0  0  0  0
  -24.4076  -42.3862   -6.9322 C   0  0  0  0  0  0  0  0  0  0  0  0
  -24.8633  -43.5572   -7.7845 C   0  0  0  0  0  0  0  0  0  0  0  0
  -22.9718  -42.4854   -6.5703 C   0  0  0  0  0  0  0  0  0  0  0  0
  -22.4299  -41.6355   -5.6416 C   0  0  0  0  0  0  0  0  0  0  0  0
  -21.0868  -41.6838   -5.2700 C   0  0  0  0  0  0  0  0  0  0  0  0
  -20.2644  -42.6082   -5.8432 C   0  0  0  0  0  0  0  0  0  0  0  0
  -20.7879  -43.4828   -6.7882 C   0  0  0  0  0  0  0  0  0  0  0  0
  -22.1192  -43.4097   -7.1344 C   0  0  0  0  0  0  0  0  0  0  0  0
  -20.6044  -40.7186   -4.2533 C   0  0  0  0  0  0  0  0  0  0  0  0
  -20.4838  -41.1586   -2.8186 C   0  0  0  0  0  0  0  0  0  0  0  0
  -21.6483  -40.2819   -3.2866 C   0  0  0  0  0  0  0  0  0  0  0  0
  -19.6335  -39.7365   -4.7379 N   0  0  0  0  0  0  0  0  0  0  0  0
  -18.6284  -40.3670   -5.5695 C   0  0  0  0  0  0  0  0  0  0  0  0
  -17.7609  -39.3455   -6.2629 C   0  0  1  0  0  0  0  0  0  0  0  0
  -16.6196  -40.0357   -6.6990 O   0  0  0  0  0  0  0  0  0  0  0  0
  -18.4171  -38.7885   -7.5000 C   0  0  2  0  0  0  0  0  0  0  0  0
  -18.1909  -37.2969   -7.5768 C   0  0  0  0  0  0  0  0  0  0  0  0
  -17.2229  -36.9061   -8.6692 C   0  0  0  0  0  0  0  0  0  0  0  0
  -17.4056  -36.8384  -10.0185 C   0  0  0  0  0  0  0  0  0  0  0  0
  -16.3356  -36.4660  -10.8225 C   0  0  0  0  0  0  0  0  0  0  0  0
  -15.0973  -36.1705  -10.2201 C   0  0  0  0  0  0  0  0  0  0  0  0
  -14.8731  -36.2265   -8.8679 C   0  0  0  0  0  0  0  0  0  0  0  0
  -15.9584  -36.5980   -8.1200 C   0  0  0  0  0  0  0  0  0  0  0  0
  -16.2669  -36.3290  -12.1857 O   0  0  0  0  0  0  0  0  0  0  0  0
  -16.9428  -35.7429  -13.2272 C   0  0  0  0  0  0  0  0  0  0  0  0
  -17.2132  -36.6665  -14.3697 C   0  0  0  0  0  0  0  0  0  0  0  0
  -16.1597  -36.9104  -15.2540 C   0  0  0  0  0  0  0  0  0  0  0  0
  -16.2633  -37.7298  -16.3391 C   0  0  0  0  0  0  0  0  0  0  0  0
  -17.4629  -38.3452  -16.5733 C   0  0  0  0  0  0  0  0  0  0  0  0
  -18.5200  -38.1244  -15.7192 C   0  0  0  0  0  0  0  0  0  0  0  0
  -18.4251  -37.2839  -14.5999 C   0  0  0  0  0  0  0  0  0  0  0  0
  -19.5993  -37.1170  -13.7619 C   0  0  0  0  0  0  0  0  0  0  0  0
  -20.2962  -38.2438  -13.3662 O   0  0  0  0  0  0  0  0  0  0  0  0
  -20.1783  -39.1134  -12.2865 C   0  0  0  0  0  0  0  0  0  0  0  0
  -20.4267  -38.8926  -10.9464 C   0  0  0  0  0  0  0  0  0  0  0  0
  -20.2125  -39.9499  -10.0985 C   0  0  0  0  0  0  0  0  0  0  0  0
  -19.7621  -41.1920  -10.6350 C   0  0  0  0  0  0  0  0  0  0  0  0
  -19.5246  -41.3897  -11.9702 C   0  0  0  0  0  0  0  0  0  0  0  0
  -19.0576  -42.7112  -12.4543 C   0  0  0  0  0  0  0  0  0  0  0  0
  -19.7399  -40.3449  -12.7471 N   0  0  0  0  0  0  0  0  0  0  0  0
  -20.3179  -40.0660   -8.6309 C   0  0  0  0  0  0  0  0  0  0  0  0
  -20.9708  -41.1122   -8.1985 O   0  0  0  0  0  0  0  0  0  0  0  0
  -19.7935  -39.1811   -7.6182 N   0  0  0  0  0  0  0  0  0  0  0  0
  1  2  1  0
  2  3  1  0
  2  4  1  0
  4  5  2  0
  5  6  1  0
  6  7  2  0
  7  8  1  0
  8  9  2  0
  6 10  1  0
 10 11  1  0
 11 12  1  0
 10 13  1  0
 13 14  1  0
 14 15  1  0
 15 16  1  6
 15 17  1  0
 17 18  1  1
 18 19  1  0
 19 20  2  0
 20 21  1  0
 21 22  2  0
 22 23  1  0
 23 24  2  0
 21 25  1  0
 25 26  1  0
 26 27  1  0
 27 28  2  0
 28 29  1  0
 29 30  2  0
 30 31  1  0
 31 32  2  0
 32 33  1  0
 33 34  1  0
 34 35  1  0
 35 36  2  0
 36 37  1  0
 37 38  2  0
 38 39  1  0
 39 40  1  0
 39 41  2  0
 37 42  1  0
 42 43  2  0
 42 44  1  0
  9  4  1  0
 12 10  1  0
 24 19  1  0
 32 27  1  0
 41 35  1  0
 44 17  1  0
M  END
$$$$
