
     RDKit          3D

 44 49  0  0  0  0  0  0  0  0999 V2000
  -11.7134  -34.6806   -8.9818 C   0  0  0  0  0  0  0  0  0  0  0  0
  -11.9950  -34.6640  -10.4601 C   0  0  0  0  0  0  0  0  0  0  0  0
  -10.7615  -35.1722  -11.1851 C   0  0  0  0  0  0  0  0  0  0  0  0
  -13.1990  -35.4730  -10.7737 C   0  0  0  0  0  0  0  0  0  0  0  0
  -13.0711  -36.7532  -11.2461 C   0  0  0  0  0  0  0  0  0  0  0  0
  -14.1693  -37.5530  -11.5602 C   0  0  0  0  0  0  0  0  0  0  0  0
  -15.4292  -37.0578  -11.3964 C   0  0  0  0  0  0  0  0  0  0  0  0
  -15.5879  -35.7622  -10.9187 C   0  0  0  0  0  0  0  0  0  0  0  0
  -14.4829  -34.9968  -10.6176 C   0  0  0  0  0  0  0  0  0  0  0  0
  -13.9179  -38.9251  -12.0622 C   0  0  0  0  0  0  0  0  0  0  0  0
  -12.9280  -39.8026  -11.3435 C   0  0  0  0  0  0  0  0  0  0  0  0
  -12.5698  -39.1146  -12.6634 C   0  0  0  0  0  0  0  0  0  0  0  0
  -15.0687  -39.5815  -12.6843 N   0  0  0  0  0  0  0  0  0  0  0  0
  -15.9214  -40.1915  -11.6842 C   0  0  0  0  0  0  0  0  0  0  0  0
  -16.9917  -39.2390  -11.2112 C   0  0  1  0  0  0  0  0  0  0  0  0
  -18.1389  -39.5385  -11.9618 O   0  0  0  0  0  0  0  0  0  0  0  0
  -17.3587  -39.4679   -9.7676 C   0  0  2  0  0  0  0  0  0  0  0  0
  -17.7692  -38.1632   -9.1264 C   0  0  0  0  0  0  0  0  0  0  0  0
  -19.2518  -38.0892   -8.8446 C   0  0  0  0  0  0  0  0  0  0  0  0
  -19.9869  -38.6793   -7.8597 C   0  0  0  0  0  0  0  0  0  0  0  0
  -21.3595  -38.4678   -7.8288 C   0  0  0  0  0  0  0  0  0  0  0  0
  -21.9485  -37.6519   -8.8142 C   0  0  0  0  0  0  0  0  0  0  0  0
  -21.2446  -37.0406   -9.8205 C   0  0  0  0  0  0  0  0  0  0  0  0
  -19.8964  -37.2801   -9.8067 C   0  0  0  0  0  0  0  0  0  0  0  0
  -22.3026  -38.9453   -6.9545 O   0  0  0  0  0  0  0  0  0  0  0  0
  -22.5330  -39.0661   -5.6064 C   0  0  0  0  0  0  0  0  0  0  0  0
  -22.9428  -40.4387   -5.1827 C   0  0  0  0  0  0  0  0  0  0  0  0
  -24.2759  -40.7985   -5.3939 C   0  0  0  0  0  0  0  0  0  0  0  0
  -24.7885  -42.0164   -5.0566 C   0  0  0  0  0  0  0  0  0  0  0  0
  -23.9521  -42.9337   -4.4810 C   0  0  0  0  0  0  0  0  0  0  0  0
  -22.6326  -42.6082   -4.2602 C   0  0  0  0  0  0  0  0  0  0  0  0
  -22.0942  -41.3589   -4.6030 C   0  0  0  0  0  0  0  0  0  0  0  0
  -20.6895  -41.1146   -4.3273 C   0  0  0  0  0  0  0  0  0  0  0  0
  -19.7648  -42.0723   -4.7012 O   0  0  0  0  0  0  0  0  0  0  0  0
  -19.0514  -42.3098   -5.8719 C   0  0  0  0  0  0  0  0  0  0  0  0
  -18.0326  -41.5763   -6.4468 C   0  0  0  0  0  0  0  0  0  0  0  0
  -17.5167  -42.0571   -7.6238 C   0  0  0  0  0  0  0  0  0  0  0  0
  -18.0433  -43.2631   -8.1732 C   0  0  0  0  0  0  0  0  0  0  0  0
  -19.0536  -43.9771   -7.5833 C   0  0  0  0  0  0  0  0  0  0  0  0
  -19.5489  -45.2241   -8.2144 C   0  0  0  0  0  0  0  0  0  0  0  0
  -19.5215  -43.4754   -6.4560 N   0  0  0  0  0  0  0  0  0  0  0  0
  -16.4817  -41.5233   -8.5305 C   0  0  0  0  0  0  0  0  0  0  0  0
  -15.5771  -42.3846   -8.9146 O   0  0  0  0  0  0  0  0  0  0  0  0
  -16.3424  -40.1827   -9.0472 N   0  0  0  0  0  0  0  0  0  0  0  0
  1  2  1  0
  2  3  1  0
  2  4  1  0
  4  5  2  0
  5  6  1  0
  6  7  2  0
  7  8  1  0
  8  9  2  0
  6 10  1  0
 10 11  1  0
 11 12  1  0
 10 13  1  0
 13 14  1  0
 14 15  1  0
 15 16  1  6
 15 17  1  0
 17 18  1  1
 18 19  1  0
 19 20  2  0
 20 21  1  0
 21 22  2  0
 22 23  1  0
 23 24  2  0
 21 25  1  0
 25 26  1  0
 26 27  1  0
 27 28  2  0
 28 29  1  0
 29 30  2  0
 30 31  1  0
 31 32  2  0
 32 33  1  0
 33 34  1  0
 34 35  1  0
 35 36  2  0
 36 37  1  0
 37 38  2  0
 38 39  1  0
 39 40  1  0
 39 41  2  0
 37 42  1  0
 42 43  2  0
 42 44  1  0
  9  4  1  0
 12 10  1  0
 24 19  1  0
 32 27  1  0
 41 35  1  0
 44 17  1  0
M  END
$$$$
