
     RDKit          3D

 44 49  0  0  0  0  0  0  0  0999 V2000
  -13.5502  -36.1327  -14.4303 C   0  0  0  0  0  0  0  0  0  0  0  0
  -14.2455  -36.2821  -13.1040 C   0  0  0  0  0  0  0  0  0  0  0  0
  -15.5748  -35.5521  -13.1789 C   0  0  0  0  0  0  0  0  0  0  0  0
  -14.4153  -37.7157  -12.7596 C   0  0  0  0  0  0  0  0  0  0  0  0
  -13.8344  -38.2315  -11.6304 C   0  0  0  0  0  0  0  0  0  0  0  0
  -13.9590  -39.5713  -11.2645 C   0  0  0  0  0  0  0  0  0  0  0  0
  -14.6851  -40.4170  -12.0500 C   0  0  0  0  0  0  0  0  0  0  0  0
  -15.2852  -39.9202  -13.2011 C   0  0  0  0  0  0  0  0  0  0  0  0
  -15.1432  -38.5914  -13.5358 C   0  0  0  0  0  0  0  0  0  0  0  0
  -13.2913  -40.0245  -10.0209 C   0  0  0  0  0  0  0  0  0  0  0  0
  -11.8184  -40.3355  -10.0470 C   0  0  0  0  0  0  0  0  0  0  0  0
  -12.8672  -41.4509  -10.0442 C   0  0  0  0  0  0  0  0  0  0  0  0
  -13.8380  -39.4690   -8.7822 N   0  0  0  0  0  0  0  0  0  0  0  0
  -15.0793  -38.7649   -9.0325 C   0  0  0  0  0  0  0  0  0  0  0  0
  -15.8443  -38.5170   -7.7558 C   0  0  1  0  0  0  0  0  0  0  0  0
  -16.7507  -37.4840   -8.0394 O   0  0  0  0  0  0  0  0  0  0  0  0
  -16.6736  -39.7080   -7.3497 C   0  0  2  0  0  0  0  0  0  0  0  0
  -17.0106  -39.6249   -5.8795 C   0  0  0  0  0  0  0  0  0  0  0  0
  -18.4669  -39.3096   -5.6287 C   0  0  0  0  0  0  0  0  0  0  0  0
  -19.5657  -40.1108   -5.7242 C   0  0  0  0  0  0  0  0  0  0  0  0
  -20.8165  -39.5687   -5.4572 C   0  0  0  0  0  0  0  0  0  0  0  0
  -20.9109  -38.2105   -5.0968 C   0  0  0  0  0  0  0  0  0  0  0  0
  -19.8306  -37.3719   -4.9895 C   0  0  0  0  0  0  0  0  0  0  0  0
  -18.6215  -37.9541   -5.2624 C   0  0  0  0  0  0  0  0  0  0  0  0
  -22.0545  -40.1590   -5.4868 O   0  0  0  0  0  0  0  0  0  0  0  0
  -22.7068  -41.2766   -5.0281 C   0  0  0  0  0  0  0  0  0  0  0  0
  -23.4753  -42.0046   -6.0821 C   0  0  0  0  0  0  0  0  0  0  0  0
  -24.7213  -41.4819   -6.4365 C   0  0  0  0  0  0  0  0  0  0  0  0
  -25.5304  -42.0416   -7.3809 C   0  0  0  0  0  0  0  0  0  0  0  0
  -25.0981  -43.1748   -8.0143 C   0  0  0  0  0  0  0  0  0  0  0  0
  -23.8741  -43.7136   -7.6865 C   0  0  0  0  0  0  0  0  0  0  0  0
  -23.0334  -43.1468   -6.7170 C   0  0  0  0  0  0  0  0  0  0  0  0
  -21.7620  -43.7933   -6.4441 C   0  0  0  0  0  0  0  0  0  0  0  0
  -20.9627  -44.1596   -7.5113 O   0  0  0  0  0  0  0  0  0  0  0  0
  -19.9812  -43.4998   -8.2441 C   0  0  0  0  0  0  0  0  0  0  0  0
  -18.7170  -43.0976   -7.8612 C   0  0  0  0  0  0  0  0  0  0  0  0
  -17.9632  -42.4525   -8.8090 C   0  0  0  0  0  0  0  0  0  0  0  0
  -18.5103  -42.2431  -10.1091 C   0  0  0  0  0  0  0  0  0  0  0  0
  -19.7675  -42.6538  -10.4684 C   0  0  0  0  0  0  0  0  0  0  0  0
  -20.2680  -42.4008  -11.8410 C   0  0  0  0  0  0  0  0  0  0  0  0
  -20.4574  -43.2657   -9.5244 N   0  0  0  0  0  0  0  0  0  0  0  0
  -16.6190  -41.8463   -8.7458 C   0  0  0  0  0  0  0  0  0  0  0  0
  -15.8173  -42.1608   -9.7287 O   0  0  0  0  0  0  0  0  0  0  0  0
  -16.0802  -40.9540   -7.7471 N   0  0  0  0  0  0  0  0  0  0  0  0
  1  2  1  0
  2  3  1  0
  2  4  1  0
  4  5  2  0
  5  6  1  0
  6  7  2  0
  7  8  1  0
  8  9  2  0
  6 10  1  0
 10 11  1  0
 11 12  1  0
 10 13  1  0
 13 14  1  0
 14 15  1  0
 15 16  1  6
 15 17  1  0
 17 18  1  1
 18 19  1  0
 19 20  2  0
 20 21  1  0
 21 22  2  0
 22 23  1  0
 23 24  2  0
 21 25  1  0
 25 26  1  0
 26 27  1  0
 27 28  2  0
 28 29  1  0
 29 30  2  0
 30 31  1  0
 31 32  2  0
 32 33  1  0
 33 34  1  0
 34 35  1  0
 35 36  2  0
 36 37  1  0
 37 38  2  0
 38 39  1  0
 39 40  1  0
 39 41  2  0
 37 42  1  0
 42 43  2  0
 42 44  1  0
  9  4  1  0
 12 10  1  0
 24 19  1  0
 32 27  1  0
 41 35  1  0
 44 17  1  0
M  END
$$$$
