
     RDKit          3D

 44 49  0  0  0  0  0  0  0  0999 V2000
  -24.2927  -43.7688   -6.4191 C   0  0  0  0  0  0  0  0  0  0  0  0
  -23.7138  -42.6992   -7.3055 C   0  0  0  0  0  0  0  0  0  0  0  0
  -24.6162  -41.4803   -7.2316 C   0  0  0  0  0  0  0  0  0  0  0  0
  -22.3192  -42.3855   -6.9065 C   0  0  0  0  0  0  0  0  0  0  0  0
  -22.0646  -41.3944   -5.9947 C   0  0  0  0  0  0  0  0  0  0  0  0
  -20.7735  -41.0574   -5.5900 C   0  0  0  0  0  0  0  0  0  0  0  0
  -19.7089  -41.7310   -6.1118 C   0  0  0  0  0  0  0  0  0  0  0  0
  -19.9385  -42.7412   -7.0386 C   0  0  0  0  0  0  0  0  0  0  0  0
  -21.2261  -43.0505   -7.4185 C   0  0  0  0  0  0  0  0  0  0  0  0
  -20.6108  -39.9698   -4.5957 C   0  0  0  0  0  0  0  0  0  0  0  0
  -21.3332  -40.0623   -3.2780 C   0  0  0  0  0  0  0  0  0  0  0  0
  -21.8312  -39.1420   -4.3955 C   0  0  0  0  0  0  0  0  0  0  0  0
  -19.3029  -39.3129   -4.5993 N   0  0  0  0  0  0  0  0  0  0  0  0
  -19.0926  -38.5819   -5.8325 C   0  0  0  0  0  0  0  0  0  0  0  0
  -17.8502  -39.0493   -6.5500 C   0  0  1  0  0  0  0  0  0  0  0  0
  -17.7526  -40.4270   -6.3024 O   0  0  0  0  0  0  0  0  0  0  0  0
  -17.9652  -38.8950   -8.0447 C   0  0  2  0  0  0  0  0  0  0  0  0
  -18.2376  -37.4510   -8.3950 C   0  0  0  0  0  0  0  0  0  0  0  0
  -17.0529  -36.7708   -9.0407 C   0  0  0  0  0  0  0  0  0  0  0  0
  -16.5684  -36.8744  -10.3108 C   0  0  0  0  0  0  0  0  0  0  0  0
  -15.4351  -36.1498  -10.6577 C   0  0  0  0  0  0  0  0  0  0  0  0
  -14.8225  -35.3320   -9.6884 C   0  0  0  0  0  0  0  0  0  0  0  0
  -15.2787  -35.2004   -8.4013 C   0  0  0  0  0  0  0  0  0  0  0  0
  -16.3975  -35.9343   -8.1100 C   0  0  0  0  0  0  0  0  0  0  0  0
  -14.7633  -36.0879  -11.8521 O   0  0  0  0  0  0  0  0  0  0  0  0
  -14.9987  -35.9024  -13.1919 C   0  0  0  0  0  0  0  0  0  0  0  0
  -14.3582  -36.9295  -14.0673 C   0  0  0  0  0  0  0  0  0  0  0  0
  -12.9956  -36.7773  -14.3348 C   0  0  0  0  0  0  0  0  0  0  0  0
  -12.2823  -37.6373  -15.1166 C   0  0  0  0  0  0  0  0  0  0  0  0
  -12.9365  -38.7054  -15.6676 C   0  0  0  0  0  0  0  0  0  0  0  0
  -14.2797  -38.8821  -15.4219 C   0  0  0  0  0  0  0  0  0  0  0  0
  -15.0237  -38.0043  -14.6194 C   0  0  0  0  0  0  0  0  0  0  0  0
  -16.4360  -38.2792  -14.4231 C   0  0  0  0  0  0  0  0  0  0  0  0
  -16.8200  -39.5637  -14.0847 O   0  0  0  0  0  0  0  0  0  0  0  0
  -16.9612  -40.2338  -12.8736 C   0  0  0  0  0  0  0  0  0  0  0  0
  -17.8855  -40.0457  -11.8653 C   0  0  0  0  0  0  0  0  0  0  0  0
  -17.7742  -40.8623  -10.7682 C   0  0  0  0  0  0  0  0  0  0  0  0
  -16.7390  -41.8424  -10.7324 C   0  0  0  0  0  0  0  0  0  0  0  0
  -15.8335  -42.0136  -11.7469 C   0  0  0  0  0  0  0  0  0  0  0  0
  -14.7840  -43.0555  -11.6382 C   0  0  0  0  0  0  0  0  0  0  0  0
  -15.9760  -41.2040  -12.7793 N   0  0  0  0  0  0  0  0  0  0  0  0
  -18.5333  -40.9132   -9.5035 C   0  0  0  0  0  0  0  0  0  0  0  0
  -18.9261  -42.1039   -9.1350 O   0  0  0  0  0  0  0  0  0  0  0  0
  -18.8925  -39.8255   -8.6251 N   0  0  0  0  0  0  0  0  0  0  0  0
  1  2  1  0
  2  3  1  0
  2  4  1  0
  4  5  2  0
  5  6  1  0
  6  7  2  0
  7  8  1  0
  8  9  2  0
  6 10  1  0
 10 11  1  0
 11 12  1  0
 10 13  1  0
 13 14  1  0
 14 15  1  0
 15 16  1  6
 15 17  1  0
 17 18  1  1
 18 19  1  0
 19 20  2  0
 20 21  1  0
 21 22  2  0
 22 23  1  0
 23 24  2  0
 21 25  1  0
 25 26  1  0
 26 27  1  0
 27 28  2  0
 28 29  1  0
 29 30  2  0
 30 31  1  0
 31 32  2  0
 32 33  1  0
 33 34  1  0
 34 35  1  0
 35 36  2  0
 36 37  1  0
 37 38  2  0
 38 39  1  0
 39 40  1  0
 39 41  2  0
 37 42  1  0
 42 43  2  0
 42 44  1  0
  9  4  1  0
 12 10  1  0
 24 19  1  0
 32 27  1  0
 41 35  1  0
 44 17  1  0
M  END
$$$$
