
     RDKit          3D

 44 49  0  0  0  0  0  0  0  0999 V2000
  -16.2137  -35.8367  -11.4916 C   0  0  0  0  0  0  0  0  0  0  0  0
  -15.2330  -36.2499  -12.5559 C   0  0  0  0  0  0  0  0  0  0  0  0
  -14.0894  -35.2512  -12.5626 C   0  0  0  0  0  0  0  0  0  0  0  0
  -14.7604  -37.6373  -12.3232 C   0  0  0  0  0  0  0  0  0  0  0  0
  -14.3897  -38.0427  -11.0675 C   0  0  0  0  0  0  0  0  0  0  0  0
  -13.9345  -39.3325  -10.7966 C   0  0  0  0  0  0  0  0  0  0  0  0
  -13.8485  -40.2409  -11.8100 C   0  0  0  0  0  0  0  0  0  0  0  0
  -14.2182  -39.8564  -13.0936 C   0  0  0  0  0  0  0  0  0  0  0  0
  -14.6638  -38.5743  -13.3292 C   0  0  0  0  0  0  0  0  0  0  0  0
  -13.5612  -39.6668   -9.4013 C   0  0  0  0  0  0  0  0  0  0  0  0
  -12.1367  -39.4745   -8.9536 C   0  0  0  0  0  0  0  0  0  0  0  0
  -12.6884  -40.8656   -9.2764 C   0  0  0  0  0  0  0  0  0  0  0  0
  -14.6124  -39.4501   -8.4062 N   0  0  0  0  0  0  0  0  0  0  0  0
  -15.7438  -38.7574   -8.9888 C   0  0  0  0  0  0  0  0  0  0  0  0
  -16.6497  -38.1831   -7.9277 C   0  0  1  0  0  0  0  0  0  0  0  0
  -17.6947  -37.5438   -8.6121 O   0  0  0  0  0  0  0  0  0  0  0  0
  -17.2899  -39.2562   -7.0851 C   0  0  2  0  0  0  0  0  0  0  0  0
  -18.1476  -38.6271   -6.0126 C   0  0  0  0  0  0  0  0  0  0  0  0
  -19.6265  -38.8109   -6.2617 C   0  0  0  0  0  0  0  0  0  0  0  0
  -20.4132  -39.9115   -6.0930 C   0  0  0  0  0  0  0  0  0  0  0  0
  -21.7612  -39.8289   -6.4185 C   0  0  0  0  0  0  0  0  0  0  0  0
  -22.2727  -38.6130   -6.9119 C   0  0  0  0  0  0  0  0  0  0  0  0
  -21.5152  -37.4841   -7.0957 C   0  0  0  0  0  0  0  0  0  0  0  0
  -20.1943  -37.6172   -6.7602 C   0  0  0  0  0  0  0  0  0  0  0  0
  -22.7436  -40.7832   -6.3417 O   0  0  0  0  0  0  0  0  0  0  0  0
  -23.2584  -41.7059   -5.4651 C   0  0  0  0  0  0  0  0  0  0  0  0
  -23.4134  -43.0731   -6.0467 C   0  0  0  0  0  0  0  0  0  0  0  0
  -24.5269  -43.2962   -6.8601 C   0  0  0  0  0  0  0  0  0  0  0  0
  -24.7949  -44.4931   -7.4561 C   0  0  0  0  0  0  0  0  0  0  0  0
  -23.9268  -45.5297   -7.2457 C   0  0  0  0  0  0  0  0  0  0  0  0
  -22.8201  -45.3404   -6.4487 C   0  0  0  0  0  0  0  0  0  0  0  0
  -22.5341  -44.1139   -5.8306 C   0  0  0  0  0  0  0  0  0  0  0  0
  -21.3411  -44.0181   -5.0082 C   0  0  0  0  0  0  0  0  0  0  0  0
  -20.1495  -44.5081   -5.5102 O   0  0  0  0  0  0  0  0  0  0  0  0
  -19.1373  -43.9539   -6.2875 C   0  0  0  0  0  0  0  0  0  0  0  0
  -18.2187  -42.9736   -5.9692 C   0  0  0  0  0  0  0  0  0  0  0  0
  -17.3314  -42.6186   -6.9538 C   0  0  0  0  0  0  0  0  0  0  0  0
  -17.3999  -43.2704   -8.2203 C   0  0  0  0  0  0  0  0  0  0  0  0
  -18.3190  -44.2438   -8.5135 C   0  0  0  0  0  0  0  0  0  0  0  0
  -18.3284  -44.8773   -9.8542 C   0  0  0  0  0  0  0  0  0  0  0  0
  -19.1542  -44.5499   -7.5387 N   0  0  0  0  0  0  0  0  0  0  0  0
  -16.2684  -41.5955   -6.9925 C   0  0  0  0  0  0  0  0  0  0  0  0
  -15.1165  -42.0037   -7.4554 O   0  0  0  0  0  0  0  0  0  0  0  0
  -16.3371  -40.2106   -6.5911 N   0  0  0  0  0  0  0  0  0  0  0  0
  1  2  1  0
  2  3  1  0
  2  4  1  0
  4  5  2  0
  5  6  1  0
  6  7  2  0
  7  8  1  0
  8  9  2  0
  6 10  1  0
 10 11  1  0
 11 12  1  0
 10 13  1  0
 13 14  1  0
 14 15  1  0
 15 16  1  6
 15 17  1  0
 17 18  1  1
 18 19  1  0
 19 20  2  0
 20 21  1  0
 21 22  2  0
 22 23  1  0
 23 24  2  0
 21 25  1  0
 25 26  1  0
 26 27  1  0
 27 28  2  0
 28 29  1  0
 29 30  2  0
 30 31  1  0
 31 32  2  0
 32 33  1  0
 33 34  1  0
 34 35  1  0
 35 36  2  0
 36 37  1  0
 37 38  2  0
 38 39  1  0
 39 40  1  0
 39 41  2  0
 37 42  1  0
 42 43  2  0
 42 44  1  0
  9  4  1  0
 12 10  1  0
 24 19  1  0
 32 27  1  0
 41 35  1  0
 44 17  1  0
M  END
$$$$
