
     RDKit          3D

 44 49  0  0  0  0  0  0  0  0999 V2000
  -11.1485  -35.9867  -11.7421 C   0  0  0  0  0  0  0  0  0  0  0  0
  -11.9845  -36.1763  -12.9791 C   0  0  0  0  0  0  0  0  0  0  0  0
  -11.2975  -35.4649  -14.1312 C   0  0  0  0  0  0  0  0  0  0  0  0
  -12.1892  -37.6196  -13.2574 C   0  0  0  0  0  0  0  0  0  0  0  0
  -12.9181  -38.3961  -12.3947 C   0  0  0  0  0  0  0  0  0  0  0  0
  -13.1357  -39.7569  -12.6074 C   0  0  0  0  0  0  0  0  0  0  0  0
  -12.6099  -40.3561  -13.7137 C   0  0  0  0  0  0  0  0  0  0  0  0
  -11.8664  -39.5919  -14.6056 C   0  0  0  0  0  0  0  0  0  0  0  0
  -11.6688  -38.2495  -14.3673 C   0  0  0  0  0  0  0  0  0  0  0  0
  -13.9413  -40.5031  -11.6114 C   0  0  0  0  0  0  0  0  0  0  0  0
  -13.5302  -41.9001  -11.2291 C   0  0  0  0  0  0  0  0  0  0  0  0
  -14.7027  -41.6481  -12.1808 C   0  0  0  0  0  0  0  0  0  0  0  0
  -14.5688  -39.6812  -10.5757 N   0  0  0  0  0  0  0  0  0  0  0  0
  -16.0042  -39.6172  -10.7627 C   0  0  0  0  0  0  0  0  0  0  0  0
  -16.6476  -38.6533   -9.7965 C   0  0  1  0  0  0  0  0  0  0  0  0
  -17.7279  -38.0774  -10.4824 O   0  0  0  0  0  0  0  0  0  0  0  0
  -17.2329  -39.3553   -8.5982 C   0  0  2  0  0  0  0  0  0  0  0  0
  -17.5380  -38.3523   -7.5107 C   0  0  0  0  0  0  0  0  0  0  0  0
  -19.0198  -38.1248   -7.3218 C   0  0  0  0  0  0  0  0  0  0  0  0
  -19.9555  -38.9071   -6.7127 C   0  0  0  0  0  0  0  0  0  0  0  0
  -21.2765  -38.4778   -6.6891 C   0  0  0  0  0  0  0  0  0  0  0  0
  -21.6079  -37.2500   -7.2943 C   0  0  0  0  0  0  0  0  0  0  0  0
  -20.6969  -36.4346   -7.9164 C   0  0  0  0  0  0  0  0  0  0  0  0
  -19.4097  -36.9021   -7.9122 C   0  0  0  0  0  0  0  0  0  0  0  0
  -22.3857  -39.0774   -6.1488 O   0  0  0  0  0  0  0  0  0  0  0  0
  -22.8090  -39.6695   -4.9847 C   0  0  0  0  0  0  0  0  0  0  0  0
  -23.4606  -40.9989   -5.1835 C   0  0  0  0  0  0  0  0  0  0  0  0
  -24.7907  -40.9983   -5.6103 C   0  0  0  0  0  0  0  0  0  0  0  0
  -25.5097  -42.1357   -5.8318 C   0  0  0  0  0  0  0  0  0  0  0  0
  -24.8951  -43.3406   -5.6249 C   0  0  0  0  0  0  0  0  0  0  0  0
  -23.5844  -43.3735   -5.2043 C   0  0  0  0  0  0  0  0  0  0  0  0
  -22.8349  -42.2103   -4.9733 C   0  0  0  0  0  0  0  0  0  0  0  0
  -21.4594  -42.3533   -4.5301 C   0  0  0  0  0  0  0  0  0  0  0  0
  -20.6369  -43.2409   -5.1990 O   0  0  0  0  0  0  0  0  0  0  0  0
  -19.8138  -43.1295   -6.3152 C   0  0  0  0  0  0  0  0  0  0  0  0
  -18.6345  -42.4292   -6.4737 C   0  0  0  0  0  0  0  0  0  0  0  0
  -18.0384  -42.4990   -7.7077 C   0  0  0  0  0  0  0  0  0  0  0  0
  -18.6510  -43.2777   -8.7333 C   0  0  0  0  0  0  0  0  0  0  0  0
  -19.8213  -43.9677   -8.5526 C   0  0  0  0  0  0  0  0  0  0  0  0
  -20.3980  -44.7574   -9.6674 C   0  0  0  0  0  0  0  0  0  0  0  0
  -20.3606  -43.8686   -7.3523 N   0  0  0  0  0  0  0  0  0  0  0  0
  -16.8268  -41.8527   -8.2486 C   0  0  0  0  0  0  0  0  0  0  0  0
  -16.0090  -42.6457   -8.8890 O   0  0  0  0  0  0  0  0  0  0  0  0
  -16.4327  -40.4665   -8.1653 N   0  0  0  0  0  0  0  0  0  0  0  0
  1  2  1  0
  2  3  1  0
  2  4  1  0
  4  5  2  0
  5  6  1  0
  6  7  2  0
  7  8  1  0
  8  9  2  0
  6 10  1  0
 10 11  1  0
 11 12  1  0
 10 13  1  0
 13 14  1  0
 14 15  1  0
 15 16  1  6
 15 17  1  0
 17 18  1  1
 18 19  1  0
 19 20  2  0
 20 21  1  0
 21 22  2  0
 22 23  1  0
 23 24  2  0
 21 25  1  0
 25 26  1  0
 26 27  1  0
 27 28  2  0
 28 29  1  0
 29 30  2  0
 30 31  1  0
 31 32  2  0
 32 33  1  0
 33 34  1  0
 34 35  1  0
 35 36  2  0
 36 37  1  0
 37 38  2  0
 38 39  1  0
 39 40  1  0
 39 41  2  0
 37 42  1  0
 42 43  2  0
 42 44  1  0
  9  4  1  0
 12 10  1  0
 24 19  1  0
 32 27  1  0
 41 35  1  0
 44 17  1  0
M  END
$$$$
