
     RDKit          3D

 44 49  0  0  0  0  0  0  0  0999 V2000
  -14.1394  -35.0007  -13.0342 C   0  0  0  0  0  0  0  0  0  0  0  0
  -13.0423  -35.7819  -13.7058 C   0  0  0  0  0  0  0  0  0  0  0  0
  -11.7089  -35.2605  -13.2003 C   0  0  0  0  0  0  0  0  0  0  0  0
  -13.2042  -37.2355  -13.4542 C   0  0  0  0  0  0  0  0  0  0  0  0
  -12.9987  -37.7499  -12.2006 C   0  0  0  0  0  0  0  0  0  0  0  0
  -13.1329  -39.1076  -11.9126 C   0  0  0  0  0  0  0  0  0  0  0  0
  -13.4827  -39.9734  -12.9064 C   0  0  0  0  0  0  0  0  0  0  0  0
  -13.6973  -39.4785  -14.1874 C   0  0  0  0  0  0  0  0  0  0  0  0
  -13.5565  -38.1317  -14.4403 C   0  0  0  0  0  0  0  0  0  0  0  0
  -12.8894  -39.5577  -10.5211 C   0  0  0  0  0  0  0  0  0  0  0  0
  -11.5471  -39.3027   -9.8887 C   0  0  0  0  0  0  0  0  0  0  0  0
  -11.9312  -40.6908  -10.4080 C   0  0  0  0  0  0  0  0  0  0  0  0
  -14.0605  -39.5310   -9.6438 N   0  0  0  0  0  0  0  0  0  0  0  0
  -15.2862  -39.6198  -10.4113 C   0  0  0  0  0  0  0  0  0  0  0  0
  -16.3502  -38.6987   -9.8670 C   0  0  1  0  0  0  0  0  0  0  0  0
  -17.3942  -38.7129  -10.8044 O   0  0  0  0  0  0  0  0  0  0  0  0
  -16.9351  -39.2072   -8.5744 C   0  0  2  0  0  0  0  0  0  0  0  0
  -17.4746  -38.0529   -7.7629 C   0  0  0  0  0  0  0  0  0  0  0  0
  -18.9845  -38.0263   -7.7131 C   0  0  0  0  0  0  0  0  0  0  0  0
  -19.8510  -38.7951   -6.9944 C   0  0  0  0  0  0  0  0  0  0  0  0
  -21.2161  -38.5847   -7.1425 C   0  0  0  0  0  0  0  0  0  0  0  0
  -21.6622  -37.5855   -8.0291 C   0  0  0  0  0  0  0  0  0  0  0  0
  -20.8236  -36.7914   -8.7694 C   0  0  0  0  0  0  0  0  0  0  0  0
  -19.4889  -37.0380   -8.5875 C   0  0  0  0  0  0  0  0  0  0  0  0
  -22.2733  -39.2198   -6.5418 O   0  0  0  0  0  0  0  0  0  0  0  0
  -22.7110  -39.6043   -5.2986 C   0  0  0  0  0  0  0  0  0  0  0  0
  -23.1479  -41.0309   -5.2247 C   0  0  0  0  0  0  0  0  0  0  0  0
  -24.4213  -41.3326   -5.7132 C   0  0  0  0  0  0  0  0  0  0  0  0
  -24.9499  -42.5896   -5.7089 C   0  0  0  0  0  0  0  0  0  0  0  0
  -24.1922  -43.6086   -5.1990 C   0  0  0  0  0  0  0  0  0  0  0  0
  -22.9329  -43.3424   -4.7101 C   0  0  0  0  0  0  0  0  0  0  0  0
  -22.3787  -42.0535   -4.7095 C   0  0  0  0  0  0  0  0  0  0  0  0
  -21.0419  -41.8784   -4.1699 C   0  0  0  0  0  0  0  0  0  0  0  0
  -20.0459  -42.7490   -4.5722 O   0  0  0  0  0  0  0  0  0  0  0  0
  -19.1505  -42.7542   -5.6370 C   0  0  0  0  0  0  0  0  0  0  0  0
  -18.0725  -41.9281   -5.8856 C   0  0  0  0  0  0  0  0  0  0  0  0
  -17.3649  -42.1692   -7.0363 C   0  0  0  0  0  0  0  0  0  0  0  0
  -17.7673  -43.2386   -7.8895 C   0  0  0  0  0  0  0  0  0  0  0  0
  -18.8398  -44.0486   -7.6212 C   0  0  0  0  0  0  0  0  0  0  0  0
  -19.1975  -45.1422   -8.5566 C   0  0  0  0  0  0  0  0  0  0  0  0
  -19.4927  -43.7775   -6.5069 N   0  0  0  0  0  0  0  0  0  0  0  0
  -16.2132  -41.4731   -7.6424 C   0  0  0  0  0  0  0  0  0  0  0  0
  -15.2378  -42.2471   -8.0388 O   0  0  0  0  0  0  0  0  0  0  0  0
  -16.0278  -40.0575   -7.8558 N   0  0  0  0  0  0  0  0  0  0  0  0
  1  2  1  0
  2  3  1  0
  2  4  1  0
  4  5  2  0
  5  6  1  0
  6  7  2  0
  7  8  1  0
  8  9  2  0
  6 10  1  0
 10 11  1  0
 11 12  1  0
 10 13  1  0
 13 14  1  0
 14 15  1  0
 15 16  1  6
 15 17  1  0
 17 18  1  1
 18 19  1  0
 19 20  2  0
 20 21  1  0
 21 22  2  0
 22 23  1  0
 23 24  2  0
 21 25  1  0
 25 26  1  0
 26 27  1  0
 27 28  2  0
 28 29  1  0
 29 30  2  0
 30 31  1  0
 31 32  2  0
 32 33  1  0
 33 34  1  0
 34 35  1  0
 35 36  2  0
 36 37  1  0
 37 38  2  0
 38 39  1  0
 39 40  1  0
 39 41  2  0
 37 42  1  0
 42 43  2  0
 42 44  1  0
  9  4  1  0
 12 10  1  0
 24 19  1  0
 32 27  1  0
 41 35  1  0
 44 17  1  0
M  END
$$$$
