
     RDKit          3D

 44 49  0  0  0  0  0  0  0  0999 V2000
  -20.0716  -36.0574  -12.5467 C   0  0  0  0  0  0  0  0  0  0  0  0
  -18.8441  -36.7226  -13.1085 C   0  0  0  0  0  0  0  0  0  0  0  0
  -18.7884  -36.4375  -14.5988 C   0  0  0  0  0  0  0  0  0  0  0  0
  -17.6247  -36.2528  -12.4050 C   0  0  0  0  0  0  0  0  0  0  0  0
  -16.5426  -37.0820  -12.2629 C   0  0  0  0  0  0  0  0  0  0  0  0
  -15.3758  -36.6914  -11.6069 C   0  0  0  0  0  0  0  0  0  0  0  0
  -15.2900  -35.4369  -11.0795 C   0  0  0  0  0  0  0  0  0  0  0  0
  -16.3728  -34.5751  -11.2092 C   0  0  0  0  0  0  0  0  0  0  0  0
  -17.5120  -34.9908  -11.8627 C   0  0  0  0  0  0  0  0  0  0  0  0
  -14.2636  -37.6671  -11.5118 C   0  0  0  0  0  0  0  0  0  0  0  0
  -12.8581  -37.1649  -11.3144 C   0  0  0  0  0  0  0  0  0  0  0  0
  -13.3432  -37.6551  -12.6812 C   0  0  0  0  0  0  0  0  0  0  0  0
  -14.6106  -38.9494  -10.8976 N   0  0  0  0  0  0  0  0  0  0  0  0
  -15.8204  -38.8364  -10.1084 C   0  0  0  0  0  0  0  0  0  0  0  0
  -16.4422  -40.1865   -9.8489 C   0  0  1  0  0  0  0  0  0  0  0  0
  -15.3822  -41.1058   -9.8276 O   0  0  0  0  0  0  0  0  0  0  0  0
  -17.0941  -40.2607   -8.4921 C   0  0  2  0  0  0  0  0  0  0  0  0
  -17.5645  -38.8887   -8.0700 C   0  0  0  0  0  0  0  0  0  0  0  0
  -19.0690  -38.7508   -8.0968 C   0  0  0  0  0  0  0  0  0  0  0  0
  -20.0075  -39.2212   -7.2271 C   0  0  0  0  0  0  0  0  0  0  0  0
  -21.3491  -38.9742   -7.4896 C   0  0  0  0  0  0  0  0  0  0  0  0
  -21.6978  -38.2470   -8.6442 C   0  0  0  0  0  0  0  0  0  0  0  0
  -20.7847  -37.7569   -9.5430 C   0  0  0  0  0  0  0  0  0  0  0  0
  -19.4770  -38.0266   -9.2391 C   0  0  0  0  0  0  0  0  0  0  0  0
  -22.4648  -39.3386   -6.7796 O   0  0  0  0  0  0  0  0  0  0  0  0
  -22.9594  -39.3182   -5.4990 C   0  0  0  0  0  0  0  0  0  0  0  0
  -23.5038  -40.6311   -5.0390 C   0  0  0  0  0  0  0  0  0  0  0  0
  -24.7843  -40.9776   -5.4765 C   0  0  0  0  0  0  0  0  0  0  0  0
  -25.4056  -42.1427   -5.1357 C   0  0  0  0  0  0  0  0  0  0  0  0
  -24.7388  -43.0180   -4.3222 C   0  0  0  0  0  0  0  0  0  0  0  0
  -23.4750  -42.7043   -3.8748 C   0  0  0  0  0  0  0  0  0  0  0  0
  -22.8259  -41.5091   -4.2188 C   0  0  0  0  0  0  0  0  0  0  0  0
  -21.4929  -41.2727   -3.6933 C   0  0  0  0  0  0  0  0  0  0  0  0
  -20.5557  -42.2853   -3.7849 O   0  0  0  0  0  0  0  0  0  0  0  0
  -19.6383  -42.6561   -4.7629 C   0  0  0  0  0  0  0  0  0  0  0  0
  -18.4957  -42.0090   -5.1897 C   0  0  0  0  0  0  0  0  0  0  0  0
  -17.7811  -42.6176   -6.1905 C   0  0  0  0  0  0  0  0  0  0  0  0
  -18.2423  -43.8594   -6.7186 C   0  0  0  0  0  0  0  0  0  0  0  0
  -19.3787  -44.4858   -6.2774 C   0  0  0  0  0  0  0  0  0  0  0  0
  -19.7951  -45.7773   -6.8752 C   0  0  0  0  0  0  0  0  0  0  0  0
  -20.0356  -43.8626   -5.3174 N   0  0  0  0  0  0  0  0  0  0  0  0
  -16.5665  -42.2027   -6.9190 C   0  0  0  0  0  0  0  0  0  0  0  0
  -15.6428  -43.1200   -7.0335 O   0  0  0  0  0  0  0  0  0  0  0  0
  -16.2705  -40.9243   -7.5206 N   0  0  0  0  0  0  0  0  0  0  0  0
  1  2  1  0
  2  3  1  0
  2  4  1  0
  4  5  2  0
  5  6  1  0
  6  7  2  0
  7  8  1  0
  8  9  2  0
  6 10  1  0
 10 11  1  0
 11 12  1  0
 10 13  1  0
 13 14  1  0
 14 15  1  0
 15 16  1  1
 15 17  1  0
 17 18  1  1
 18 19  1  0
 19 20  2  0
 20 21  1  0
 21 22  2  0
 22 23  1  0
 23 24  2  0
 21 25  1  0
 25 26  1  0
 26 27  1  0
 27 28  2  0
 28 29  1  0
 29 30  2  0
 30 31  1  0
 31 32  2  0
 32 33  1  0
 33 34  1  0
 34 35  1  0
 35 36  2  0
 36 37  1  0
 37 38  2  0
 38 39  1  0
 39 40  1  0
 39 41  2  0
 37 42  1  0
 42 43  2  0
 42 44  1  0
  9  4  1  0
 12 10  1  0
 24 19  1  0
 32 27  1  0
 41 35  1  0
 44 17  1  0
M  END
$$$$
