
     RDKit          3D

 44 49  0  0  0  0  0  0  0  0999 V2000
  -18.9902  -43.6585   -1.2630 C   0  0  0  0  0  0  0  0  0  0  0  0
  -20.3988  -43.9941   -1.6731 C   0  0  0  0  0  0  0  0  0  0  0  0
  -21.3507  -43.3210   -0.7003 C   0  0  0  0  0  0  0  0  0  0  0  0
  -20.6494  -43.5792   -3.0758 C   0  0  0  0  0  0  0  0  0  0  0  0
  -20.7647  -42.2517   -3.3968 C   0  0  0  0  0  0  0  0  0  0  0  0
  -21.0047  -41.8097   -4.6973 C   0  0  0  0  0  0  0  0  0  0  0  0
  -21.1323  -42.7213   -5.7034 C   0  0  0  0  0  0  0  0  0  0  0  0
  -21.0197  -44.0744   -5.4059 C   0  0  0  0  0  0  0  0  0  0  0  0
  -20.7827  -44.4795   -4.1107 C   0  0  0  0  0  0  0  0  0  0  0  0
  -21.1096  -40.3501   -4.9347 C   0  0  0  0  0  0  0  0  0  0  0  0
  -22.4579  -39.6853   -4.8515 C   0  0  0  0  0  0  0  0  0  0  0  0
  -21.8023  -39.9888   -6.2013 C   0  0  0  0  0  0  0  0  0  0  0  0
  -19.9476  -39.5655   -4.5150 N   0  0  0  0  0  0  0  0  0  0  0  0
  -18.7423  -40.0321   -5.1699 C   0  0  0  0  0  0  0  0  0  0  0  0
  -18.1550  -38.9742   -6.0713 C   0  0  1  0  0  0  0  0  0  0  0  0
  -17.0066  -39.5433   -6.6427 O   0  0  0  0  0  0  0  0  0  0  0  0
  -19.0720  -38.6307   -7.2170 C   0  0  2  0  0  0  0  0  0  0  0  0
  -19.0550  -37.1402   -7.4623 C   0  0  0  0  0  0  0  0  0  0  0  0
  -18.3385  -36.7642   -8.7384 C   0  0  0  0  0  0  0  0  0  0  0  0
  -18.7480  -36.8634  -10.0349 C   0  0  0  0  0  0  0  0  0  0  0  0
  -17.8819  -36.4631  -11.0445 C   0  0  0  0  0  0  0  0  0  0  0  0
  -16.6096  -35.9680  -10.6983 C   0  0  0  0  0  0  0  0  0  0  0  0
  -16.1604  -35.8522   -9.4073 C   0  0  0  0  0  0  0  0  0  0  0  0
  -17.0509  -36.2595   -8.4500 C   0  0  0  0  0  0  0  0  0  0  0  0
  -18.0567  -36.4673  -12.4051 O   0  0  0  0  0  0  0  0  0  0  0  0
  -18.9645  -36.0762  -13.3580 C   0  0  0  0  0  0  0  0  0  0  0  0
  -19.2986  -37.1421  -14.3498 C   0  0  0  0  0  0  0  0  0  0  0  0
  -18.3826  -37.3611  -15.3815 C   0  0  0  0  0  0  0  0  0  0  0  0
  -18.5574  -38.2993  -16.3556 C   0  0  0  0  0  0  0  0  0  0  0  0
  -19.6901  -39.0663  -16.3197 C   0  0  0  0  0  0  0  0  0  0  0  0
  -20.6116  -38.8738  -15.3149 C   0  0  0  0  0  0  0  0  0  0  0  0
  -20.4424  -37.9120  -14.3076 C   0  0  0  0  0  0  0  0  0  0  0  0
  -21.4741  -37.7877  -13.2932 C   0  0  0  0  0  0  0  0  0  0  0  0
  -21.9457  -38.9358  -12.6839 O   0  0  0  0  0  0  0  0  0  0  0  0
  -21.5410  -39.6650  -11.5703 C   0  0  0  0  0  0  0  0  0  0  0  0
  -21.5915  -39.3299  -10.2319 C   0  0  0  0  0  0  0  0  0  0  0  0
  -21.1066  -40.2589   -9.3461 C   0  0  0  0  0  0  0  0  0  0  0  0
  -20.5951  -41.4937   -9.8433 C   0  0  0  0  0  0  0  0  0  0  0  0
  -20.5573  -41.8067  -11.1771 C   0  0  0  0  0  0  0  0  0  0  0  0
  -20.0106  -43.1124  -11.6188 C   0  0  0  0  0  0  0  0  0  0  0  0
  -21.0300  -40.8825  -11.9919 N   0  0  0  0  0  0  0  0  0  0  0  0
  -20.9531  -40.2268   -7.8786 C   0  0  0  0  0  0  0  0  0  0  0  0
  -21.3860  -41.2864   -7.2481 O   0  0  0  0  0  0  0  0  0  0  0  0
  -20.3871  -39.1848   -7.0555 N   0  0  0  0  0  0  0  0  0  0  0  0
  1  2  1  0
  2  3  1  0
  2  4  1  0
  4  5  2  0
  5  6  1  0
  6  7  2  0
  7  8  1  0
  8  9  2  0
  6 10  1  0
 10 11  1  0
 11 12  1  0
 10 13  1  0
 13 14  1  0
 14 15  1  0
 15 16  1  6
 15 17  1  0
 17 18  1  1
 18 19  1  0
 19 20  2  0
 20 21  1  0
 21 22  2  0
 22 23  1  0
 23 24  2  0
 21 25  1  0
 25 26  1  0
 26 27  1  0
 27 28  2  0
 28 29  1  0
 29 30  2  0
 30 31  1  0
 31 32  2  0
 32 33  1  0
 33 34  1  0
 34 35  1  0
 35 36  2  0
 36 37  1  0
 37 38  2  0
 38 39  1  0
 39 40  1  0
 39 41  2  0
 37 42  1  0
 42 43  2  0
 42 44  1  0
  9  4  1  0
 12 10  1  0
 24 19  1  0
 32 27  1  0
 41 35  1  0
 44 17  1  0
M  END
$$$$
