
     RDKit          3D

 44 49  0  0  0  0  0  0  0  0999 V2000
  -24.1281  -40.9796   -2.3643 C   0  0  0  0  0  0  0  0  0  0  0  0
  -23.1499  -39.9221   -2.7999 C   0  0  0  0  0  0  0  0  0  0  0  0
  -22.4035  -39.4299   -1.5727 C   0  0  0  0  0  0  0  0  0  0  0  0
  -22.2300  -40.4537   -3.8361 C   0  0  0  0  0  0  0  0  0  0  0  0
  -22.1300  -39.8386   -5.0568 C   0  0  0  0  0  0  0  0  0  0  0  0
  -21.2853  -40.3003   -6.0655 C   0  0  0  0  0  0  0  0  0  0  0  0
  -20.5198  -41.4072   -5.8460 C   0  0  0  0  0  0  0  0  0  0  0  0
  -20.6015  -42.0507   -4.6166 C   0  0  0  0  0  0  0  0  0  0  0  0
  -21.4461  -41.5702   -3.6401 C   0  0  0  0  0  0  0  0  0  0  0  0
  -21.2525  -39.5579   -7.3484 C   0  0  0  0  0  0  0  0  0  0  0  0
  -22.3292  -38.5475   -7.6425 C   0  0  0  0  0  0  0  0  0  0  0  0
  -22.3381  -39.9324   -8.2950 C   0  0  0  0  0  0  0  0  0  0  0  0
  -19.9151  -39.2865   -7.8772 N   0  0  0  0  0  0  0  0  0  0  0  0
  -18.8924  -39.6810   -6.9296 C   0  0  0  0  0  0  0  0  0  0  0  0
  -17.5628  -39.0439   -7.2504 C   0  0  1  0  0  0  0  0  0  0  0  0
  -16.6184  -39.6795   -6.4298 O   0  0  0  0  0  0  0  0  0  0  0  0
  -17.1343  -39.3071   -8.6711 C   0  0  2  0  0  0  0  0  0  0  0  0
  -17.8021  -38.3227   -9.6021 C   0  0  0  0  0  0  0  0  0  0  0  0
  -16.8412  -37.2984  -10.1596 C   0  0  0  0  0  0  0  0  0  0  0  0
  -15.9010  -37.4212  -11.1391 C   0  0  0  0  0  0  0  0  0  0  0  0
  -15.1176  -36.3195  -11.4589 C   0  0  0  0  0  0  0  0  0  0  0  0
  -15.3182  -35.1118  -10.7626 C   0  0  0  0  0  0  0  0  0  0  0  0
  -16.2528  -34.9476   -9.7719 C   0  0  0  0  0  0  0  0  0  0  0  0
  -16.9988  -36.0620   -9.4947 C   0  0  0  0  0  0  0  0  0  0  0  0
  -14.1183  -36.1926  -12.3901 O   0  0  0  0  0  0  0  0  0  0  0  0
  -13.8628  -36.4566  -13.7130 C   0  0  0  0  0  0  0  0  0  0  0  0
  -12.5774  -37.1802  -13.9489 C   0  0  0  0  0  0  0  0  0  0  0  0
  -11.4055  -36.4204  -13.9241 C   0  0  0  0  0  0  0  0  0  0  0  0
  -10.1636  -36.9471  -14.1234 C   0  0  0  0  0  0  0  0  0  0  0  0
  -10.0608  -38.2909  -14.3601 C   0  0  0  0  0  0  0  0  0  0  0  0
  -11.1983  -39.0662  -14.3905 C   0  0  0  0  0  0  0  0  0  0  0  0
  -12.4809  -38.5355  -14.1868 C   0  0  0  0  0  0  0  0  0  0  0  0
  -13.6169  -39.4387  -14.2399 C   0  0  0  0  0  0  0  0  0  0  0  0
  -13.5519  -40.6268  -13.5357 O   0  0  0  0  0  0  0  0  0  0  0  0
  -13.8744  -40.9861  -12.2308 C   0  0  0  0  0  0  0  0  0  0  0  0
  -15.1101  -41.0750  -11.6213 C   0  0  0  0  0  0  0  0  0  0  0  0
  -15.1200  -41.4532  -10.3024 C   0  0  0  0  0  0  0  0  0  0  0  0
  -13.8836  -41.7339   -9.6497 C   0  0  0  0  0  0  0  0  0  0  0  0
  -12.6678  -41.6419  -10.2756 C   0  0  0  0  0  0  0  0  0  0  0  0
  -11.4233  -41.9506   -9.5307 C   0  0  0  0  0  0  0  0  0  0  0  0
  -12.7062  -41.2711  -11.5414 N   0  0  0  0  0  0  0  0  0  0  0  0
  -16.2235  -41.5997   -9.3333 C   0  0  0  0  0  0  0  0  0  0  0  0
  -16.2152  -42.7076   -8.6403 O   0  0  0  0  0  0  0  0  0  0  0  0
  -17.3014  -40.6819   -9.0513 N   0  0  0  0  0  0  0  0  0  0  0  0
  1  2  1  0
  2  3  1  0
  2  4  1  0
  4  5  2  0
  5  6  1  0
  6  7  2  0
  7  8  1  0
  8  9  2  0
  6 10  1  0
 10 11  1  0
 11 12  1  0
 10 13  1  0
 13 14  1  0
 14 15  1  0
 15 16  1  1
 15 17  1  0
 17 18  1  6
 18 19  1  0
 19 20  2  0
 20 21  1  0
 21 22  2  0
 22 23  1  0
 23 24  2  0
 21 25  1  0
 25 26  1  0
 26 27  1  0
 27 28  2  0
 28 29  1  0
 29 30  2  0
 30 31  1  0
 31 32  2  0
 32 33  1  0
 33 34  1  0
 34 35  1  0
 35 36  2  0
 36 37  1  0
 37 38  2  0
 38 39  1  0
 39 40  1  0
 39 41  2  0
 37 42  1  0
 42 43  2  0
 42 44  1  0
  9  4  1  0
 12 10  1  0
 24 19  1  0
 32 27  1  0
 41 35  1  0
 44 17  1  0
M  END
$$$$
