
     RDKit          3D

 38 40  0  0  0  0  0  0  0  0999 V2000
  -19.9914  -37.2737   -7.0982 C   0  0  0  0  0  0  0  0  0  0  0  0
  -19.7317  -38.5410   -7.8415 C   0  0  2  0  0  0  0  0  0  0  0  0
  -20.6232  -39.6711   -7.4606 C   0  0  0  0  0  0  0  0  0  0  0  0
  -21.9592  -39.2618   -6.9264 C   0  0  0  0  0  0  0  0  0  0  0  0
  -22.0889  -39.4044   -5.4251 C   0  0  0  0  0  0  0  0  0  0  0  0
  -23.0170  -40.5778   -5.0703 C   0  0  0  0  0  0  0  0  0  0  0  0
  -22.2631  -41.8207   -5.4837 C   0  0  0  0  0  0  0  0  0  0  0  0
  -22.9178  -43.0968   -5.0822 C   0  0  0  0  0  0  0  0  0  0  0  0
  -21.9240  -44.2212   -5.3524 C   0  0  0  0  0  0  0  0  0  0  0  0
  -21.0497  -43.9144   -6.5500 C   0  0  0  0  0  0  0  0  0  0  0  0
  -19.7861  -45.1440   -6.6545 S   0  0  0  0  0  6  0  0  0  0  0  0
  -19.1760  -45.2782   -5.2906 O   0  0  0  0  0  0  0  0  0  0  0  0
  -20.5137  -46.4660   -6.8856 O   0  0  0  0  0  0  0  0  0  0  0  0
  -18.6389  -44.9314   -7.9292 C   0  0  0  0  0  0  0  0  0  0  0  0
  -18.3687  -43.5344   -8.3999 C   0  0  1  0  0  0  0  0  0  0  0  0
  -19.4771  -43.0716   -9.2757 C   0  0  0  0  0  0  0  0  0  0  0  0
  -17.9206  -42.6622   -7.3369 C   0  0  0  0  0  0  0  0  0  0  0  0
  -17.8400  -43.1951   -6.1731 O   0  0  0  0  0  0  0  0  0  0  0  0
  -17.5510  -41.3075   -7.3612 N   0  0  0  0  0  0  0  0  0  0  0  0
  -17.9829  -40.2766   -8.2646 C   0  0  1  0  0  0  0  0  0  0  0  0
  -18.2715  -38.9555   -7.6009 C   0  0  0  0  0  0  0  0  0  0  0  0
  -16.9064  -40.0468   -9.3127 C   0  0  2  0  0  0  0  0  0  0  0  0
  -16.9570  -41.0473  -10.2924 O   0  0  0  0  0  0  0  0  0  0  0  0
  -15.5582  -40.1372   -8.6269 C   0  0  0  0  0  0  0  0  0  0  0  0
  -15.1292  -38.7535   -8.4145 N   0  0  0  0  0  0  0  0  0  0  0  0
  -13.9222  -38.5812   -9.2270 C   0  0  0  0  0  0  0  0  0  0  0  0
  -12.6451  -39.1516   -8.7319 C   0  0  0  0  0  0  0  0  0  0  0  0
  -13.4222  -39.8248   -9.8453 C   0  0  0  0  0  0  0  0  0  0  0  0
  -13.9038  -37.2956   -9.9452 C   0  0  0  0  0  0  0  0  0  0  0  0
  -12.8632  -36.9207  -10.7300 C   0  0  0  0  0  0  0  0  0  0  0  0
  -12.8967  -35.6947  -11.3882 C   0  0  0  0  0  0  0  0  0  0  0  0
  -13.9720  -34.8424  -11.2615 C   0  0  0  0  0  0  0  0  0  0  0  0
  -15.0098  -35.2542  -10.4578 C   0  0  0  0  0  0  0  0  0  0  0  0
  -14.9886  -36.4519   -9.8085 C   0  0  0  0  0  0  0  0  0  0  0  0
  -11.7189  -35.3498  -12.2338 C   0  0  0  0  0  0  0  0  0  0  0  0
  -11.6780  -36.3613  -13.3667 C   0  0  0  0  0  0  0  0  0  0  0  0
  -10.4898  -35.4229  -11.3617 C   0  0  0  0  0  0  0  0  0  0  0  0
  -11.8274  -33.9496  -12.8005 C   0  0  0  0  0  0  0  0  0  0  0  0
  2  1  1  1
  2  3  1  0
  3  4  1  0
  4  5  1  0
  5  6  1  0
  6  7  1  0
  7  8  1  0
  8  9  1  0
  9 10  1  0
 10 11  1  0
 11 12  2  0
 11 13  2  0
 11 14  1  0
 14 15  1  0
 15 16  1  1
 15 17  1  0
 17 18  2  0
 17 19  1  0
 19 20  1  0
 20 21  1  1
 20 22  1  0
 22 23  1  6
 22 24  1  0
 24 25  1  0
 25 26  1  0
 26 27  1  0
 27 28  1  0
 26 29  1  0
 29 30  2  0
 30 31  1  0
 31 32  2  0
 32 33  1  0
 33 34  2  0
 31 35  1  0
 35 36  1  0
 35 37  1  0
 35 38  1  0
 21  2  1  0
 28 26  1  0
 34 29  1  0
M  END
$$$$
