
     RDKit          3D

 38 40  0  0  0  0  0  0  0  0999 V2000
  -21.1434  -37.2755   -6.9232 C   0  0  0  0  0  0  0  0  0  0  0  0
  -20.2027  -38.1572   -7.6739 C   0  0  2  0  0  0  0  0  0  0  0  0
  -20.7794  -39.4691   -8.0781 C   0  0  0  0  0  0  0  0  0  0  0  0
  -22.2649  -39.4723   -8.2540 C   0  0  0  0  0  0  0  0  0  0  0  0
  -23.0149  -40.1387   -7.1206 C   0  0  0  0  0  0  0  0  0  0  0  0
  -23.5971  -41.4872   -7.5750 C   0  0  0  0  0  0  0  0  0  0  0  0
  -22.4008  -42.3856   -7.7890 C   0  0  0  0  0  0  0  0  0  0  0  0
  -22.7444  -43.8045   -8.0834 C   0  0  0  0  0  0  0  0  0  0  0  0
  -21.4486  -44.6062   -8.0275 C   0  0  0  0  0  0  0  0  0  0  0  0
  -20.2640  -43.7804   -8.4831 C   0  0  0  0  0  0  0  0  0  0  0  0
  -18.7862  -44.6961   -8.1719 S   0  0  0  0  0  6  0  0  0  0  0  0
  -18.8570  -45.1970   -6.7597 O   0  0  0  0  0  0  0  0  0  0  0  0
  -18.8883  -45.9516   -9.0342 O   0  0  0  0  0  0  0  0  0  0  0  0
  -17.3095  -43.8904   -8.5676 C   0  0  0  0  0  0  0  0  0  0  0  0
  -17.2926  -42.3930   -8.5063 C   0  0  1  0  0  0  0  0  0  0  0  0
  -17.9609  -41.8292   -9.7084 C   0  0  0  0  0  0  0  0  0  0  0  0
  -17.6672  -41.8816   -7.2063 C   0  0  0  0  0  0  0  0  0  0  0  0
  -17.9689  -42.7629   -6.3248 O   0  0  0  0  0  0  0  0  0  0  0  0
  -17.7580  -40.5617   -6.7353 N   0  0  0  0  0  0  0  0  0  0  0  0
  -18.0201  -39.3604   -7.4793 C   0  0  1  0  0  0  0  0  0  0  0  0
  -18.9650  -38.4059   -6.7974 C   0  0  0  0  0  0  0  0  0  0  0  0
  -16.7111  -38.6271   -7.7225 C   0  0  2  0  0  0  0  0  0  0  0  0
  -16.8480  -37.7217   -8.7831 O   0  0  0  0  0  0  0  0  0  0  0  0
  -15.6671  -39.6514   -8.1191 C   0  0  0  0  0  0  0  0  0  0  0  0
  -14.3773  -38.9700   -7.9938 N   0  0  0  0  0  0  0  0  0  0  0  0
  -13.6900  -39.1797   -9.2707 C   0  0  0  0  0  0  0  0  0  0  0  0
  -13.9089  -38.2011  -10.3643 C   0  0  0  0  0  0  0  0  0  0  0  0
  -12.6260  -38.1976   -9.5575 C   0  0  0  0  0  0  0  0  0  0  0  0
  -13.5395  -40.6064   -9.6032 C   0  0  0  0  0  0  0  0  0  0  0  0
  -12.6551  -41.4091   -8.9605 C   0  0  0  0  0  0  0  0  0  0  0  0
  -12.5533  -42.7518   -9.3129 C   0  0  0  0  0  0  0  0  0  0  0  0
  -13.3366  -43.2927  -10.3091 C   0  0  0  0  0  0  0  0  0  0  0  0
  -14.2225  -42.4502  -10.9400 C   0  0  0  0  0  0  0  0  0  0  0  0
  -14.3314  -41.1343  -10.6039 C   0  0  0  0  0  0  0  0  0  0  0  0
  -11.5610  -43.5734   -8.5634 C   0  0  0  0  0  0  0  0  0  0  0  0
  -10.9956  -44.5859   -9.5449 C   0  0  0  0  0  0  0  0  0  0  0  0
  -12.2848  -44.2357   -7.4171 C   0  0  0  0  0  0  0  0  0  0  0  0
  -10.4407  -42.7233   -8.0016 C   0  0  0  0  0  0  0  0  0  0  0  0
  2  1  1  1
  2  3  1  0
  3  4  1  0
  4  5  1  0
  5  6  1  0
  6  7  1  0
  7  8  1  0
  8  9  1  0
  9 10  1  0
 10 11  1  0
 11 12  2  0
 11 13  2  0
 11 14  1  0
 14 15  1  0
 15 16  1  6
 15 17  1  0
 17 18  2  0
 17 19  1  0
 19 20  1  0
 20 21  1  1
 20 22  1  0
 22 23  1  6
 22 24  1  0
 24 25  1  0
 25 26  1  0
 26 27  1  0
 27 28  1  0
 26 29  1  0
 29 30  2  0
 30 31  1  0
 31 32  2  0
 32 33  1  0
 33 34  2  0
 31 35  1  0
 35 36  1  0
 35 37  1  0
 35 38  1  0
 21  2  1  0
 28 26  1  0
 34 29  1  0
M  END
$$$$
