
     RDKit          3D

 38 40  0  0  0  0  0  0  0  0999 V2000
  -20.5686  -37.9537   -6.5308 C   0  0  0  0  0  0  0  0  0  0  0  0
  -19.6266  -38.6974   -7.4170 C   0  0  2  0  0  0  0  0  0  0  0  0
  -20.2084  -39.9123   -8.0514 C   0  0  0  0  0  0  0  0  0  0  0  0
  -21.6920  -39.8713   -8.2382 C   0  0  0  0  0  0  0  0  0  0  0  0
  -22.4583  -40.7205   -7.2470 C   0  0  0  0  0  0  0  0  0  0  0  0
  -23.0454  -41.9626   -7.9373 C   0  0  0  0  0  0  0  0  0  0  0  0
  -21.8534  -42.8196   -8.2958 C   0  0  0  0  0  0  0  0  0  0  0  0
  -22.2041  -44.1613   -8.8391 C   0  0  0  0  0  0  0  0  0  0  0  0
  -20.9146  -44.9717   -8.9140 C   0  0  0  0  0  0  0  0  0  0  0  0
  -19.7195  -44.0889   -9.2063 C   0  0  0  0  0  0  0  0  0  0  0  0
  -18.2516  -45.0581   -9.0485 S   0  0  0  0  0  6  0  0  0  0  0  0
  -18.3404  -45.7996   -7.7475 O   0  0  0  0  0  0  0  0  0  0  0  0
  -18.3538  -46.1409  -10.1197 O   0  0  0  0  0  0  0  0  0  0  0  0
  -16.7652  -44.2084   -9.2828 C   0  0  0  0  0  0  0  0  0  0  0  0
  -16.7383  -42.7455   -8.9580 C   0  0  1  0  0  0  0  0  0  0  0  0
  -17.3902  -41.9726  -10.0476 C   0  0  0  0  0  0  0  0  0  0  0  0
  -17.1225  -42.4681   -7.5916 C   0  0  0  0  0  0  0  0  0  0  0  0
  -17.4395  -43.4883   -6.8820 O   0  0  0  0  0  0  0  0  0  0  0  0
  -17.2087  -41.2512   -6.8958 N   0  0  0  0  0  0  0  0  0  0  0  0
  -17.4546  -39.9353   -7.4185 C   0  0  1  0  0  0  0  0  0  0  0  0
  -18.3997  -39.1077   -6.5872 C   0  0  0  0  0  0  0  0  0  0  0  0
  -16.1381  -39.1822   -7.5168 C   0  0  2  0  0  0  0  0  0  0  0  0
  -16.3181  -37.9703   -8.1967 O   0  0  0  0  0  0  0  0  0  0  0  0
  -15.1739  -40.0278   -8.3240 C   0  0  0  0  0  0  0  0  0  0  0  0
  -14.3216  -39.0787   -9.0424 N   0  0  0  0  0  0  0  0  0  0  0  0
  -13.4801  -39.8888   -9.9269 C   0  0  0  0  0  0  0  0  0  0  0  0
  -12.4105  -40.7214   -9.3235 C   0  0  0  0  0  0  0  0  0  0  0  0
  -13.7024  -41.3437   -9.8138 C   0  0  0  0  0  0  0  0  0  0  0  0
  -13.2377  -39.2395  -11.2263 C   0  0  0  0  0  0  0  0  0  0  0  0
  -13.1244  -37.8938  -11.3521 C   0  0  0  0  0  0  0  0  0  0  0  0
  -12.8938  -37.3307  -12.6040 C   0  0  0  0  0  0  0  0  0  0  0  0
  -12.7765  -38.1139  -13.7315 C   0  0  0  0  0  0  0  0  0  0  0  0
  -12.8967  -39.4746  -13.5676 C   0  0  0  0  0  0  0  0  0  0  0  0
  -13.1223  -40.0375  -12.3475 C   0  0  0  0  0  0  0  0  0  0  0  0
  -12.7796  -35.8460  -12.6660 C   0  0  0  0  0  0  0  0  0  0  0  0
  -11.7118  -35.4436  -11.6629 C   0  0  0  0  0  0  0  0  0  0  0  0
  -14.1296  -35.2664  -12.3224 C   0  0  0  0  0  0  0  0  0  0  0  0
  -12.3876  -35.3720  -14.0498 C   0  0  0  0  0  0  0  0  0  0  0  0
  2  1  1  1
  2  3  1  0
  3  4  1  0
  4  5  1  0
  5  6  1  0
  6  7  1  0
  7  8  1  0
  8  9  1  0
  9 10  1  0
 10 11  1  0
 11 12  2  0
 11 13  2  0
 11 14  1  0
 14 15  1  0
 15 16  1  6
 15 17  1  0
 17 18  2  0
 17 19  1  0
 19 20  1  0
 20 21  1  1
 20 22  1  0
 22 23  1  6
 22 24  1  0
 24 25  1  0
 25 26  1  0
 26 27  1  0
 27 28  1  0
 26 29  1  0
 29 30  2  0
 30 31  1  0
 31 32  2  0
 32 33  1  0
 33 34  2  0
 31 35  1  0
 35 36  1  0
 35 37  1  0
 35 38  1  0
 21  2  1  0
 28 26  1  0
 34 29  1  0
M  END
$$$$
