
     RDKit          3D

 38 40  0  0  0  0  0  0  0  0999 V2000
  -20.2314  -37.8081   -5.4975 C   0  0  0  0  0  0  0  0  0  0  0  0
  -19.5154  -38.6457   -6.5034 C   0  0  2  0  0  0  0  0  0  0  0  0
  -20.2961  -39.8121   -7.0001 C   0  0  0  0  0  0  0  0  0  0  0  0
  -21.7812  -39.6408   -6.9447 C   0  0  0  0  0  0  0  0  0  0  0  0
  -22.4446  -40.4038   -5.8183 C   0  0  0  0  0  0  0  0  0  0  0  0
  -23.2421  -41.5977   -6.3686 C   0  0  0  0  0  0  0  0  0  0  0  0
  -22.2036  -42.5632   -6.8913 C   0  0  0  0  0  0  0  0  0  0  0  0
  -22.7532  -43.8754   -7.3320 C   0  0  0  0  0  0  0  0  0  0  0  0
  -21.5684  -44.7993   -7.5922 C   0  0  0  0  0  0  0  0  0  0  0  0
  -20.3659  -44.0315   -8.0997 C   0  0  0  0  0  0  0  0  0  0  0  0
  -18.9811  -45.1264   -8.1548 S   0  0  0  0  0  6  0  0  0  0  0  0
  -18.9187  -45.8386   -6.8360 O   0  0  0  0  0  0  0  0  0  0  0  0
  -19.3509  -46.2104   -9.1639 O   0  0  0  0  0  0  0  0  0  0  0  0
  -17.4857  -44.4168   -8.6513 C   0  0  0  0  0  0  0  0  0  0  0  0
  -17.2797  -42.9579   -8.3770 C   0  0  1  0  0  0  0  0  0  0  0  0
  -18.0325  -42.1448   -9.3679 C   0  0  0  0  0  0  0  0  0  0  0  0
  -17.4089  -42.6281   -6.9748 C   0  0  0  0  0  0  0  0  0  0  0  0
  -17.6919  -43.6057   -6.1945 O   0  0  0  0  0  0  0  0  0  0  0  0
  -17.2743  -41.3988   -6.3092 N   0  0  0  0  0  0  0  0  0  0  0  0
  -17.4882  -40.0735   -6.8223 C   0  0  1  0  0  0  0  0  0  0  0  0
  -18.2089  -39.1529   -5.8725 C   0  0  0  0  0  0  0  0  0  0  0  0
  -16.1457  -39.4430   -7.1544 C   0  0  2  0  0  0  0  0  0  0  0  0
  -16.2455  -38.0455   -7.1410 O   0  0  0  0  0  0  0  0  0  0  0  0
  -15.7636  -39.8671   -8.5582 C   0  0  0  0  0  0  0  0  0  0  0  0
  -14.7386  -40.8996   -8.3940 N   0  0  0  0  0  0  0  0  0  0  0  0
  -13.9776  -40.9084   -9.6460 C   0  0  0  0  0  0  0  0  0  0  0  0
  -12.4956  -40.9270   -9.5763 C   0  0  0  0  0  0  0  0  0  0  0  0
  -13.2775  -42.1779   -9.9237 C   0  0  0  0  0  0  0  0  0  0  0  0
  -14.6366  -40.1361  -10.7128 C   0  0  0  0  0  0  0  0  0  0  0  0
  -14.9488  -38.8241  -10.5683 C   0  0  0  0  0  0  0  0  0  0  0  0
  -15.5705  -38.1400  -11.6088 C   0  0  0  0  0  0  0  0  0  0  0  0
  -15.8807  -38.7682  -12.7952 C   0  0  0  0  0  0  0  0  0  0  0  0
  -15.5502  -40.0989  -12.9076 C   0  0  0  0  0  0  0  0  0  0  0  0
  -14.9414  -40.7793  -11.8963 C   0  0  0  0  0  0  0  0  0  0  0  0
  -15.8826  -36.7008  -11.3793 C   0  0  0  0  0  0  0  0  0  0  0  0
  -15.3430  -36.3463  -10.0040 C   0  0  0  0  0  0  0  0  0  0  0  0
  -17.3802  -36.5364  -11.4621 C   0  0  0  0  0  0  0  0  0  0  0  0
  -15.2401  -35.8148  -12.4259 C   0  0  0  0  0  0  0  0  0  0  0  0
  2  1  1  1
  2  3  1  0
  3  4  1  0
  4  5  1  0
  5  6  1  0
  6  7  1  0
  7  8  1  0
  8  9  1  0
  9 10  1  0
 10 11  1  0
 11 12  2  0
 11 13  2  0
 11 14  1  0
 14 15  1  0
 15 16  1  6
 15 17  1  0
 17 18  2  0
 17 19  1  0
 19 20  1  0
 20 21  1  1
 20 22  1  0
 22 23  1  6
 22 24  1  0
 24 25  1  0
 25 26  1  0
 26 27  1  0
 27 28  1  0
 26 29  1  0
 29 30  2  0
 30 31  1  0
 31 32  2  0
 32 33  1  0
 33 34  2  0
 31 35  1  0
 35 36  1  0
 35 37  1  0
 35 38  1  0
 21  2  1  0
 28 26  1  0
 34 29  1  0
M  END
$$$$
