
     RDKit          3D

 38 40  0  0  0  0  0  0  0  0999 V2000
  -13.7629  -35.8625  -11.0077 C   0  0  0  0  0  0  0  0  0  0  0  0
  -13.7240  -37.1309  -10.2231 C   0  0  2  0  0  0  0  0  0  0  0  0
  -12.9097  -38.2127  -10.8425 C   0  0  0  0  0  0  0  0  0  0  0  0
  -11.8070  -37.7343  -11.7330 C   0  0  0  0  0  0  0  0  0  0  0  0
  -12.0990  -37.8930  -13.2096 C   0  0  0  0  0  0  0  0  0  0  0  0
  -11.2398  -39.0154  -13.8145 C   0  0  0  0  0  0  0  0  0  0  0  0
  -11.7688  -40.2936  -13.2060 C   0  0  0  0  0  0  0  0  0  0  0  0
  -11.1782  -41.5354  -13.7783 C   0  0  0  0  0  0  0  0  0  0  0  0
  -11.9846  -42.7117  -13.2390 C   0  0  0  0  0  0  0  0  0  0  0  0
  -12.5012  -42.4377  -11.8422 C   0  0  0  0  0  0  0  0  0  0  0  0
  -13.6063  -43.7374  -11.3855 S   0  0  0  0  0  6  0  0  0  0  0  0
  -14.5682  -43.9290  -12.5206 O   0  0  0  0  0  0  0  0  0  0  0  0
  -12.7641  -45.0106  -11.3718 O   0  0  0  0  0  0  0  0  0  0  0  0
  -14.3566  -43.5722   -9.8376 C   0  0  0  0  0  0  0  0  0  0  0  0
  -14.5670  -42.1861   -9.3077 C   0  0  1  0  0  0  0  0  0  0  0  0
  -13.2863  -41.6451   -8.7815 C   0  0  0  0  0  0  0  0  0  0  0  0
  -15.3498  -41.3588  -10.1990 C   0  0  0  0  0  0  0  0  0  0  0  0
  -15.7239  -41.9140  -11.2929 O   0  0  0  0  0  0  0  0  0  0  0  0
  -15.7790  -40.0279  -10.0691 N   0  0  0  0  0  0  0  0  0  0  0  0
  -15.1726  -38.9591   -9.3239 C   0  0  1  0  0  0  0  0  0  0  0  0
  -15.1646  -37.6342  -10.0404 C   0  0  0  0  0  0  0  0  0  0  0  0
  -15.9204  -38.7762   -8.0133 C   0  0  2  0  0  0  0  0  0  0  0  0
  -15.0914  -39.0941   -6.9293 O   0  0  0  0  0  0  0  0  0  0  0  0
  -17.0888  -39.7412   -8.0021 C   0  0  0  0  0  0  0  0  0  0  0  0
  -18.2843  -38.9164   -8.1867 N   0  0  0  0  0  0  0  0  0  0  0  0
  -19.2338  -39.3557   -7.1609 C   0  0  0  0  0  0  0  0  0  0  0  0
  -18.7553  -40.2698   -6.0946 C   0  0  0  0  0  0  0  0  0  0  0  0
  -18.9809  -38.7968   -5.8183 C   0  0  0  0  0  0  0  0  0  0  0  0
  -20.5989  -39.5202   -7.6885 C   0  0  0  0  0  0  0  0  0  0  0  0
  -21.6934  -39.4752   -6.8888 C   0  0  0  0  0  0  0  0  0  0  0  0
  -22.9620  -39.6354   -7.4388 C   0  0  0  0  0  0  0  0  0  0  0  0
  -23.1365  -39.8409   -8.7901 C   0  0  0  0  0  0  0  0  0  0  0  0
  -22.0050  -39.8811   -9.5716 C   0  0  0  0  0  0  0  0  0  0  0  0
  -20.7581  -39.7255   -9.0449 C   0  0  0  0  0  0  0  0  0  0  0  0
  -24.1179  -39.5734   -6.5000 C   0  0  0  0  0  0  0  0  0  0  0  0
  -24.7539  -38.2046   -6.6735 C   0  0  0  0  0  0  0  0  0  0  0  0
  -23.5869  -39.7807   -5.1030 C   0  0  0  0  0  0  0  0  0  0  0  0
  -25.1375  -40.6535   -6.7953 C   0  0  0  0  0  0  0  0  0  0  0  0
  2  1  1  6
  2  3  1  0
  3  4  1  0
  4  5  1  0
  5  6  1  0
  6  7  1  0
  7  8  1  0
  8  9  1  0
  9 10  1  0
 10 11  1  0
 11 12  2  0
 11 13  2  0
 11 14  1  0
 14 15  1  0
 15 16  1  6
 15 17  1  0
 17 18  2  0
 17 19  1  0
 19 20  1  0
 20 21  1  6
 20 22  1  0
 22 23  1  1
 22 24  1  0
 24 25  1  0
 25 26  1  0
 26 27  1  0
 27 28  1  0
 26 29  1  0
 29 30  2  0
 30 31  1  0
 31 32  2  0
 32 33  1  0
 33 34  2  0
 31 35  1  0
 35 36  1  0
 35 37  1  0
 35 38  1  0
 21  2  1  0
 28 26  1  0
 34 29  1  0
M  END
$$$$
