
     RDKit          3D

 38 40  0  0  0  0  0  0  0  0999 V2000
  -20.6519  -37.1351   -6.7698 C   0  0  0  0  0  0  0  0  0  0  0  0
  -19.9839  -38.2378   -7.5206 C   0  0  2  0  0  0  0  0  0  0  0  0
  -20.7265  -39.5283   -7.5080 C   0  0  0  0  0  0  0  0  0  0  0  0
  -22.2067  -39.3972   -7.3359 C   0  0  0  0  0  0  0  0  0  0  0  0
  -22.6971  -39.7590   -5.9505 C   0  0  0  0  0  0  0  0  0  0  0  0
  -23.4598  -41.0938   -5.9769 C   0  0  0  0  0  0  0  0  0  0  0  0
  -22.4138  -42.1441   -6.2715 C   0  0  0  0  0  0  0  0  0  0  0  0
  -22.9111  -43.5455   -6.1858 C   0  0  0  0  0  0  0  0  0  0  0  0
  -21.6963  -44.4636   -6.2657 C   0  0  0  0  0  0  0  0  0  0  0  0
  -20.6086  -43.8718   -7.1373 C   0  0  0  0  0  0  0  0  0  0  0  0
  -19.1625  -44.8755   -6.9924 S   0  0  0  0  0  6  0  0  0  0  0  0
  -18.9169  -45.1011   -5.5298 O   0  0  0  0  0  0  0  0  0  0  0  0
  -19.5550  -46.2470   -7.5357 O   0  0  0  0  0  0  0  0  0  0  0  0
  -17.7790  -44.3252   -7.8694 C   0  0  0  0  0  0  0  0  0  0  0  0
  -17.6499  -42.8529   -8.1184 C   0  0  1  0  0  0  0  0  0  0  0  0
  -18.5548  -42.4450   -9.2250 C   0  0  0  0  0  0  0  0  0  0  0  0
  -17.6596  -42.0758   -6.8987 C   0  0  0  0  0  0  0  0  0  0  0  0
  -17.7924  -42.7433   -5.8117 O   0  0  0  0  0  0  0  0  0  0  0  0
  -17.5457  -40.6907   -6.6970 N   0  0  0  0  0  0  0  0  0  0  0  0
  -17.9036  -39.6224   -7.5893 C   0  0  1  0  0  0  0  0  0  0  0  0
  -18.5878  -38.4605   -6.9179 C   0  0  0  0  0  0  0  0  0  0  0  0
  -16.6495  -39.0964   -8.2681 C   0  0  2  0  0  0  0  0  0  0  0  0
  -16.9773  -38.0950   -9.1917 O   0  0  0  0  0  0  0  0  0  0  0  0
  -16.0148  -40.2414   -9.0314 C   0  0  0  0  0  0  0  0  0  0  0  0
  -14.7470  -39.7193   -9.5451 N   0  0  0  0  0  0  0  0  0  0  0  0
  -14.4758  -40.4693  -10.7741 C   0  0  0  0  0  0  0  0  0  0  0  0
  -14.2000  -41.9237  -10.6726 C   0  0  0  0  0  0  0  0  0  0  0  0
  -15.5424  -41.4147  -11.1580 C   0  0  0  0  0  0  0  0  0  0  0  0
  -13.7507  -39.6691  -11.7755 C   0  0  0  0  0  0  0  0  0  0  0  0
  -13.3570  -38.3937  -11.5346 C   0  0  0  0  0  0  0  0  0  0  0  0
  -12.6730  -37.6815  -12.5154 C   0  0  0  0  0  0  0  0  0  0  0  0
  -12.3823  -38.2449  -13.7388 C   0  0  0  0  0  0  0  0  0  0  0  0
  -12.7964  -39.5399  -13.9494 C   0  0  0  0  0  0  0  0  0  0  0  0
  -13.4665  -40.2473  -12.9971 C   0  0  0  0  0  0  0  0  0  0  0  0
  -12.2709  -36.2861  -12.1801 C   0  0  0  0  0  0  0  0  0  0  0  0
  -11.3874  -36.3661  -10.9466 C   0  0  0  0  0  0  0  0  0  0  0  0
  -13.5295  -35.4932  -11.9274 C   0  0  0  0  0  0  0  0  0  0  0  0
  -11.5086  -35.6350  -13.3151 C   0  0  0  0  0  0  0  0  0  0  0  0
  2  1  1  1
  2  3  1  0
  3  4  1  0
  4  5  1  0
  5  6  1  0
  6  7  1  0
  7  8  1  0
  8  9  1  0
  9 10  1  0
 10 11  1  0
 11 12  2  0
 11 13  2  0
 11 14  1  0
 14 15  1  0
 15 16  1  6
 15 17  1  0
 17 18  2  0
 17 19  1  0
 19 20  1  0
 20 21  1  1
 20 22  1  0
 22 23  1  6
 22 24  1  0
 24 25  1  0
 25 26  1  0
 26 27  1  0
 27 28  1  0
 26 29  1  0
 29 30  2  0
 30 31  1  0
 31 32  2  0
 32 33  1  0
 33 34  2  0
 31 35  1  0
 35 36  1  0
 35 37  1  0
 35 38  1  0
 21  2  1  0
 28 26  1  0
 34 29  1  0
M  END
$$$$
