
     RDKit          3D

 38 40  0  0  0  0  0  0  0  0999 V2000
  -19.8473  -37.0170   -6.4379 C   0  0  0  0  0  0  0  0  0  0  0  0
  -19.1239  -37.8166   -7.4690 C   0  0  2  0  0  0  0  0  0  0  0  0
  -19.8945  -38.9735   -8.0026 C   0  0  0  0  0  0  0  0  0  0  0  0
  -21.3810  -38.8164   -7.9428 C   0  0  0  0  0  0  0  0  0  0  0  0
  -22.0385  -39.6199   -6.8414 C   0  0  0  0  0  0  0  0  0  0  0  0
  -22.8256  -40.8027   -7.4293 C   0  0  0  0  0  0  0  0  0  0  0  0
  -21.7788  -41.7425   -7.9813 C   0  0  0  0  0  0  0  0  0  0  0  0
  -22.3171  -43.0449   -8.4633 C   0  0  0  0  0  0  0  0  0  0  0  0
  -21.1244  -43.9501   -8.7515 C   0  0  0  0  0  0  0  0  0  0  0  0
  -19.9282  -43.1568   -9.2338 C   0  0  0  0  0  0  0  0  0  0  0  0
  -18.5342  -44.2377   -9.3222 S   0  0  0  0  0  6  0  0  0  0  0  0
  -18.4664  -44.9904   -8.0263 O   0  0  0  0  0  0  0  0  0  0  0  0
  -18.8944  -45.2926  -10.3651 O   0  0  0  0  0  0  0  0  0  0  0  0
  -17.0447  -43.5003   -9.7952 C   0  0  0  0  0  0  0  0  0  0  0  0
  -16.8510  -42.0490   -9.4752 C   0  0  1  0  0  0  0  0  0  0  0  0
  -17.6103  -41.2117  -10.4406 C   0  0  0  0  0  0  0  0  0  0  0  0
  -16.9836  -41.7644   -8.0634 C   0  0  0  0  0  0  0  0  0  0  0  0
  -17.2587  -42.7684   -7.3143 O   0  0  0  0  0  0  0  0  0  0  0  0
  -16.8597  -40.5555   -7.3596 N   0  0  0  0  0  0  0  0  0  0  0  0
  -17.0846  -39.2166   -7.8310 C   0  0  1  0  0  0  0  0  0  0  0  0
  -17.8135  -38.3323   -6.8533 C   0  0  0  0  0  0  0  0  0  0  0  0
  -15.7473  -38.5648   -8.1423 C   0  0  2  0  0  0  0  0  0  0  0  0
  -15.9042  -37.1822   -8.3070 O   0  0  0  0  0  0  0  0  0  0  0  0
  -15.2429  -39.1336   -9.4531 C   0  0  0  0  0  0  0  0  0  0  0  0
  -14.6698  -40.4398   -9.1228 N   0  0  0  0  0  0  0  0  0  0  0  0
  -13.3256  -40.4442   -9.7056 C   0  0  0  0  0  0  0  0  0  0  0  0
  -12.2024  -40.9794   -8.8971 C   0  0  0  0  0  0  0  0  0  0  0  0
  -12.8063  -41.7879  -10.0278 C   0  0  0  0  0  0  0  0  0  0  0  0
  -13.0887  -39.2887  -10.5875 C   0  0  0  0  0  0  0  0  0  0  0  0
  -14.0782  -38.4276  -10.9324 C   0  0  0  0  0  0  0  0  0  0  0  0
  -13.8004  -37.3500  -11.7684 C   0  0  0  0  0  0  0  0  0  0  0  0
  -12.5317  -37.1330  -12.2604 C   0  0  0  0  0  0  0  0  0  0  0  0
  -11.5524  -38.0258  -11.8906 C   0  0  0  0  0  0  0  0  0  0  0  0
  -11.8120  -39.0842  -11.0728 C   0  0  0  0  0  0  0  0  0  0  0  0
  -14.9362  -36.4452  -12.1039 C   0  0  0  0  0  0  0  0  0  0  0  0
  -14.8118  -36.1101  -13.5806 C   0  0  0  0  0  0  0  0  0  0  0  0
  -14.8209  -35.2198  -11.2312 C   0  0  0  0  0  0  0  0  0  0  0  0
  -16.2738  -37.1039  -11.8388 C   0  0  0  0  0  0  0  0  0  0  0  0
  2  1  1  1
  2  3  1  0
  3  4  1  0
  4  5  1  0
  5  6  1  0
  6  7  1  0
  7  8  1  0
  8  9  1  0
  9 10  1  0
 10 11  1  0
 11 12  2  0
 11 13  2  0
 11 14  1  0
 14 15  1  0
 15 16  1  6
 15 17  1  0
 17 18  2  0
 17 19  1  0
 19 20  1  0
 20 21  1  1
 20 22  1  0
 22 23  1  6
 22 24  1  0
 24 25  1  0
 25 26  1  0
 26 27  1  0
 27 28  1  0
 26 29  1  0
 29 30  2  0
 30 31  1  0
 31 32  2  0
 32 33  1  0
 33 34  2  0
 31 35  1  0
 35 36  1  0
 35 37  1  0
 35 38  1  0
 21  2  1  0
 28 26  1  0
 34 29  1  0
M  END
$$$$
