
     RDKit          3D

 38 40  0  0  0  0  0  0  0  0999 V2000
  -20.4489  -37.8812   -5.6418 C   0  0  0  0  0  0  0  0  0  0  0  0
  -19.7795  -38.7997   -6.6083 C   0  0  2  0  0  0  0  0  0  0  0  0
  -20.5839  -39.9971   -6.9771 C   0  0  0  0  0  0  0  0  0  0  0  0
  -22.0647  -39.8132   -6.8713 C   0  0  0  0  0  0  0  0  0  0  0  0
  -22.6804  -40.4811   -5.6606 C   0  0  0  0  0  0  0  0  0  0  0  0
  -23.5040  -41.7099   -6.0797 C   0  0  0  0  0  0  0  0  0  0  0  0
  -22.4916  -42.7197   -6.5688 C   0  0  0  0  0  0  0  0  0  0  0  0
  -23.0630  -44.0594   -6.8802 C   0  0  0  0  0  0  0  0  0  0  0  0
  -21.8929  -45.0078   -7.1175 C   0  0  0  0  0  0  0  0  0  0  0  0
  -20.7117  -44.2896   -7.7355 C   0  0  0  0  0  0  0  0  0  0  0  0
  -19.3333  -45.3935   -7.7636 S   0  0  0  0  0  6  0  0  0  0  0  0
  -19.2155  -45.9999   -6.3965 O   0  0  0  0  0  0  0  0  0  0  0  0
  -19.7494  -46.5516   -8.6669 O   0  0  0  0  0  0  0  0  0  0  0  0
  -17.8593  -44.7341   -8.3788 C   0  0  0  0  0  0  0  0  0  0  0  0
  -17.6379  -43.2593   -8.2298 C   0  0  1  0  0  0  0  0  0  0  0  0
  -18.4311  -42.5226   -9.2484 C   0  0  0  0  0  0  0  0  0  0  0  0
  -17.7052  -42.8192   -6.8538 C   0  0  0  0  0  0  0  0  0  0  0  0
  -17.9564  -43.7305   -5.9871 O   0  0  0  0  0  0  0  0  0  0  0  0
  -17.5388  -41.5420   -6.2939 N   0  0  0  0  0  0  0  0  0  0  0  0
  -17.7716  -40.2601   -6.9004 C   0  0  1  0  0  0  0  0  0  0  0  0
  -18.4480  -39.2632   -5.9962 C   0  0  0  0  0  0  0  0  0  0  0  0
  -16.4432  -39.6657   -7.3391 C   0  0  2  0  0  0  0  0  0  0  0  0
  -16.5019  -38.2660   -7.3130 O   0  0  0  0  0  0  0  0  0  0  0  0
  -16.1891  -40.0925   -8.7707 C   0  0  0  0  0  0  0  0  0  0  0  0
  -14.7454  -40.3173   -8.8658 N   0  0  0  0  0  0  0  0  0  0  0  0
  -14.4127  -40.1758  -10.2856 C   0  0  0  0  0  0  0  0  0  0  0  0
  -13.4738  -39.1009  -10.6915 C   0  0  0  0  0  0  0  0  0  0  0  0
  -13.0250  -40.5469  -10.6253 C   0  0  0  0  0  0  0  0  0  0  0  0
  -15.5438  -40.5118  -11.1669 C   0  0  0  0  0  0  0  0  0  0  0  0
  -16.7666  -39.9431  -11.0224 C   0  0  0  0  0  0  0  0  0  0  0  0
  -17.8019  -40.2952  -11.8836 C   0  0  0  0  0  0  0  0  0  0  0  0
  -17.6144  -41.2172  -12.8903 C   0  0  0  0  0  0  0  0  0  0  0  0
  -16.3620  -41.7742  -13.0081 C   0  0  0  0  0  0  0  0  0  0  0  0
  -15.3407  -41.4375  -12.1714 C   0  0  0  0  0  0  0  0  0  0  0  0
  -19.1173  -39.6293  -11.6659 C   0  0  0  0  0  0  0  0  0  0  0  0
  -18.9010  -38.5608  -10.6077 C   0  0  0  0  0  0  0  0  0  0  0  0
  -20.0978  -40.6844  -11.2164 C   0  0  0  0  0  0  0  0  0  0  0  0
  -19.6400  -38.9934  -12.9370 C   0  0  0  0  0  0  0  0  0  0  0  0
  2  1  1  1
  2  3  1  0
  3  4  1  0
  4  5  1  0
  5  6  1  0
  6  7  1  0
  7  8  1  0
  8  9  1  0
  9 10  1  0
 10 11  1  0
 11 12  2  0
 11 13  2  0
 11 14  1  0
 14 15  1  0
 15 16  1  6
 15 17  1  0
 17 18  2  0
 17 19  1  0
 19 20  1  0
 20 21  1  1
 20 22  1  0
 22 23  1  6
 22 24  1  0
 24 25  1  0
 25 26  1  0
 26 27  1  0
 27 28  1  0
 26 29  1  0
 29 30  2  0
 30 31  1  0
 31 32  2  0
 32 33  1  0
 33 34  2  0
 31 35  1  0
 35 36  1  0
 35 37  1  0
 35 38  1  0
 21  2  1  0
 28 26  1  0
 34 29  1  0
M  END
$$$$
