
     RDKit          3D

 38 40  0  0  0  0  0  0  0  0999 V2000
  -13.8200  -35.7501  -10.1797 C   0  0  0  0  0  0  0  0  0  0  0  0
  -13.9283  -37.1276   -9.6170 C   0  0  2  0  0  0  0  0  0  0  0  0
  -13.3716  -38.1953  -10.4928 C   0  0  0  0  0  0  0  0  0  0  0  0
  -12.2887  -37.7428  -11.4204 C   0  0  0  0  0  0  0  0  0  0  0  0
  -12.7366  -37.5916  -12.8582 C   0  0  0  0  0  0  0  0  0  0  0  0
  -12.1415  -38.7083  -13.7316 C   0  0  0  0  0  0  0  0  0  0  0  0
  -12.8247  -39.9770  -13.2758 C   0  0  0  0  0  0  0  0  0  0  0  0
  -12.5105  -41.1741  -14.1044 C   0  0  0  0  0  0  0  0  0  0  0  0
  -13.4546  -42.2888  -13.6672 C   0  0  0  0  0  0  0  0  0  0  0  0
  -13.7873  -42.1894  -12.1933 C   0  0  0  0  0  0  0  0  0  0  0  0
  -15.0531  -43.3636  -11.8214 S   0  0  0  0  0  6  0  0  0  0  0  0
  -16.1327  -43.2015  -12.8502 O   0  0  0  0  0  0  0  0  0  0  0  0
  -14.4444  -44.7334  -12.1105 O   0  0  0  0  0  0  0  0  0  0  0  0
  -15.6200  -43.3606  -10.1890 C   0  0  0  0  0  0  0  0  0  0  0  0
  -15.5402  -42.0742   -9.4241 C   0  0  1  0  0  0  0  0  0  0  0  0
  -14.1432  -41.8381   -8.9742 C   0  0  0  0  0  0  0  0  0  0  0  0
  -16.2471  -40.9921  -10.0731 C   0  0  0  0  0  0  0  0  0  0  0  0
  -16.8087  -41.2814  -11.1892 O   0  0  0  0  0  0  0  0  0  0  0  0
  -16.4277  -39.6551   -9.6832 N   0  0  0  0  0  0  0  0  0  0  0  0
  -15.5816  -38.8408   -8.8547 C   0  0  1  0  0  0  0  0  0  0  0  0
  -15.4113  -37.4275   -9.3471 C   0  0  0  0  0  0  0  0  0  0  0  0
  -16.1646  -38.7792   -7.4523 C   0  0  2  0  0  0  0  0  0  0  0  0
  -15.5024  -39.6802   -6.6079 O   0  0  0  0  0  0  0  0  0  0  0  0
  -17.6183  -39.1999   -7.5306 C   0  0  0  0  0  0  0  0  0  0  0  0
  -18.3950  -37.9681   -7.3781 N   0  0  0  0  0  0  0  0  0  0  0  0
  -19.7743  -38.3949   -7.1292 C   0  0  0  0  0  0  0  0  0  0  0  0
  -20.3068  -38.3065   -5.7471 C   0  0  0  0  0  0  0  0  0  0  0  0
  -20.7024  -37.2943   -6.8034 C   0  0  0  0  0  0  0  0  0  0  0  0
  -20.1790  -39.5240   -7.9838 C   0  0  0  0  0  0  0  0  0  0  0  0
  -21.2121  -39.4350   -8.8580 C   0  0  0  0  0  0  0  0  0  0  0  0
  -21.5528  -40.5322   -9.6438 C   0  0  0  0  0  0  0  0  0  0  0  0
  -20.8596  -41.7198   -9.5556 C   0  0  0  0  0  0  0  0  0  0  0  0
  -19.8178  -41.7750   -8.6587 C   0  0  0  0  0  0  0  0  0  0  0  0
  -19.4748  -40.7079   -7.8842 C   0  0  0  0  0  0  0  0  0  0  0  0
  -22.6980  -40.3613  -10.5822 C   0  0  0  0  0  0  0  0  0  0  0  0
  -23.4117  -41.7005  -10.6555 C   0  0  0  0  0  0  0  0  0  0  0  0
  -22.1382  -39.9415  -11.9190 C   0  0  0  0  0  0  0  0  0  0  0  0
  -23.6594  -39.2937  -10.1034 C   0  0  0  0  0  0  0  0  0  0  0  0
  2  1  1  6
  2  3  1  0
  3  4  1  0
  4  5  1  0
  5  6  1  0
  6  7  1  0
  7  8  1  0
  8  9  1  0
  9 10  1  0
 10 11  1  0
 11 12  2  0
 11 13  2  0
 11 14  1  0
 14 15  1  0
 15 16  1  6
 15 17  1  0
 17 18  2  0
 17 19  1  0
 19 20  1  0
 20 21  1  6
 20 22  1  0
 22 23  1  1
 22 24  1  0
 24 25  1  0
 25 26  1  0
 26 27  1  0
 27 28  1  0
 26 29  1  0
 29 30  2  0
 30 31  1  0
 31 32  2  0
 32 33  1  0
 33 34  2  0
 31 35  1  0
 35 36  1  0
 35 37  1  0
 35 38  1  0
 21  2  1  0
 28 26  1  0
 34 29  1  0
M  END
$$$$
