
     RDKit          3D

 38 40  0  0  0  0  0  0  0  0999 V2000
  -20.3561  -37.7697   -5.6176 C   0  0  0  0  0  0  0  0  0  0  0  0
  -19.7605  -38.5773   -6.7216 C   0  0  2  0  0  0  0  0  0  0  0  0
  -20.4164  -39.8957   -6.9423 C   0  0  0  0  0  0  0  0  0  0  0  0
  -21.8526  -39.9574   -6.5283 C   0  0  0  0  0  0  0  0  0  0  0  0
  -22.0852  -40.7023   -5.2314 C   0  0  0  0  0  0  0  0  0  0  0  0
  -22.7649  -42.0554   -5.4980 C   0  0  0  0  0  0  0  0  0  0  0  0
  -21.7244  -42.8904   -6.2081 C   0  0  0  0  0  0  0  0  0  0  0  0
  -22.1204  -44.3099   -6.4239 C   0  0  0  0  0  0  0  0  0  0  0  0
  -20.8857  -45.0551   -6.9190 C   0  0  0  0  0  0  0  0  0  0  0  0
  -19.9928  -44.1597   -7.7521 C   0  0  0  0  0  0  0  0  0  0  0  0
  -18.4883  -45.0212   -8.0891 S   0  0  0  0  0  6  0  0  0  0  0  0
  -17.9912  -45.5824   -6.7898 O   0  0  0  0  0  0  0  0  0  0  0  0
  -18.8871  -46.2435   -8.9121 O   0  0  0  0  0  0  0  0  0  0  0  0
  -17.3028  -44.1355   -8.9813 C   0  0  0  0  0  0  0  0  0  0  0  0
  -17.3004  -42.6426   -8.8490 C   0  0  1  0  0  0  0  0  0  0  0  0
  -18.3978  -42.0599   -9.6650 C   0  0  0  0  0  0  0  0  0  0  0  0
  -17.1517  -42.2021   -7.4795 C   0  0  0  0  0  0  0  0  0  0  0  0
  -17.0643  -43.1313   -6.5999 O   0  0  0  0  0  0  0  0  0  0  0  0
  -17.0845  -40.9080   -6.9382 N   0  0  0  0  0  0  0  0  0  0  0  0
  -17.6453  -39.6899   -7.4551 C   0  0  1  0  0  0  0  0  0  0  0  0
  -18.2734  -38.8069   -6.4087 C   0  0  0  0  0  0  0  0  0  0  0  0
  -16.5529  -38.8900   -8.1459 C   0  0  2  0  0  0  0  0  0  0  0  0
  -17.1065  -38.0417   -9.1140 O   0  0  0  0  0  0  0  0  0  0  0  0
  -15.6351  -39.8656   -8.8545 C   0  0  0  0  0  0  0  0  0  0  0  0
  -14.2783  -39.3589   -8.6400 N   0  0  0  0  0  0  0  0  0  0  0  0
  -13.5858  -39.5189   -9.9212 C   0  0  0  0  0  0  0  0  0  0  0  0
  -12.1657  -39.9487   -9.9124 C   0  0  0  0  0  0  0  0  0  0  0  0
  -13.2734  -40.9179  -10.2735 C   0  0  0  0  0  0  0  0  0  0  0  0
  -14.0354  -38.5461  -10.9314 C   0  0  0  0  0  0  0  0  0  0  0  0
  -13.7579  -37.2221  -10.8339 C   0  0  0  0  0  0  0  0  0  0  0  0
  -14.2055  -36.3448  -11.8174 C   0  0  0  0  0  0  0  0  0  0  0  0
  -14.9317  -36.7918  -12.8998 C   0  0  0  0  0  0  0  0  0  0  0  0
  -15.1951  -38.1404  -12.9670 C   0  0  0  0  0  0  0  0  0  0  0  0
  -14.7622  -39.0090  -12.0106 C   0  0  0  0  0  0  0  0  0  0  0  0
  -13.8625  -34.9048  -11.6448 C   0  0  0  0  0  0  0  0  0  0  0  0
  -12.3483  -34.8201  -11.5527 C   0  0  0  0  0  0  0  0  0  0  0  0
  -14.5366  -34.4195  -10.3852 C   0  0  0  0  0  0  0  0  0  0  0  0
  -14.3527  -34.0691  -12.8087 C   0  0  0  0  0  0  0  0  0  0  0  0
  2  1  1  1
  2  3  1  0
  3  4  1  0
  4  5  1  0
  5  6  1  0
  6  7  1  0
  7  8  1  0
  8  9  1  0
  9 10  1  0
 10 11  1  0
 11 12  2  0
 11 13  2  0
 11 14  1  0
 14 15  1  0
 15 16  1  1
 15 17  1  0
 17 18  2  0
 17 19  1  0
 19 20  1  0
 20 21  1  1
 20 22  1  0
 22 23  1  6
 22 24  1  0
 24 25  1  0
 25 26  1  0
 26 27  1  0
 27 28  1  0
 26 29  1  0
 29 30  2  0
 30 31  1  0
 31 32  2  0
 32 33  1  0
 33 34  2  0
 31 35  1  0
 35 36  1  0
 35 37  1  0
 35 38  1  0
 21  2  1  0
 28 26  1  0
 34 29  1  0
M  END
$$$$
