
     RDKit          3D

 38 40  0  0  0  0  0  0  0  0999 V2000
  -19.7035  -37.6426   -4.8441 C   0  0  0  0  0  0  0  0  0  0  0  0
  -19.4984  -38.4071   -6.1088 C   0  0  2  0  0  0  0  0  0  0  0  0
  -20.4807  -39.5039   -6.3306 C   0  0  0  0  0  0  0  0  0  0  0  0
  -21.8079  -39.2984   -5.6717 C   0  0  0  0  0  0  0  0  0  0  0  0
  -22.0127  -40.1396   -4.4302 C   0  0  0  0  0  0  0  0  0  0  0  0
  -23.0332  -41.2586   -4.6960 C   0  0  0  0  0  0  0  0  0  0  0  0
  -22.3483  -42.2017   -5.6580 C   0  0  0  0  0  0  0  0  0  0  0  0
  -23.1054  -43.4548   -5.9316 C   0  0  0  0  0  0  0  0  0  0  0  0
  -22.1796  -44.3835   -6.7096 C   0  0  0  0  0  0  0  0  0  0  0  0
  -21.2347  -43.6066   -7.6021 C   0  0  0  0  0  0  0  0  0  0  0  0
  -20.0545  -44.7290   -8.2851 S   0  0  0  0  0  6  0  0  0  0  0  0
  -19.5153  -45.5562   -7.1558 O   0  0  0  0  0  0  0  0  0  0  0  0
  -20.8596  -45.7096   -9.1340 O   0  0  0  0  0  0  0  0  0  0  0  0
  -18.8407  -44.0188   -9.2893 C   0  0  0  0  0  0  0  0  0  0  0  0
  -18.4555  -42.5958   -9.0194 C   0  0  1  0  0  0  0  0  0  0  0  0
  -19.4903  -41.6787   -9.5650 C   0  0  0  0  0  0  0  0  0  0  0  0
  -17.9961  -42.3875   -7.6639 C   0  0  0  0  0  0  0  0  0  0  0  0
  -18.0031  -43.4222   -6.9062 O   0  0  0  0  0  0  0  0  0  0  0  0
  -17.5344  -41.2257   -7.0241 N   0  0  0  0  0  0  0  0  0  0  0  0
  -17.8550  -39.8551   -7.3139 C   0  0  1  0  0  0  0  0  0  0  0  0
  -18.0817  -39.0028   -6.0927 C   0  0  0  0  0  0  0  0  0  0  0  0
  -16.7204  -39.2341   -8.1121 C   0  0  2  0  0  0  0  0  0  0  0  0
  -17.1944  -38.1655   -8.8847 O   0  0  0  0  0  0  0  0  0  0  0  0
  -16.1823  -40.2879   -9.0588 C   0  0  0  0  0  0  0  0  0  0  0  0
  -14.8387  -39.8383   -9.4282 N   0  0  0  0  0  0  0  0  0  0  0  0
  -14.6990  -40.1315  -10.8569 C   0  0  0  0  0  0  0  0  0  0  0  0
  -14.7888  -41.5433  -11.3045 C   0  0  0  0  0  0  0  0  0  0  0  0
  -15.9434  -40.5832  -11.5099 C   0  0  0  0  0  0  0  0  0  0  0  0
  -13.7548  -39.2235  -11.5299 C   0  0  0  0  0  0  0  0  0  0  0  0
  -13.9431  -37.8808  -11.5646 C   0  0  0  0  0  0  0  0  0  0  0  0
  -13.0189  -37.0669  -12.2134 C   0  0  0  0  0  0  0  0  0  0  0  0
  -11.9052  -37.5961  -12.8284 C   0  0  0  0  0  0  0  0  0  0  0  0
  -11.7456  -38.9615  -12.7740 C   0  0  0  0  0  0  0  0  0  0  0  0
  -12.6432  -39.7685  -12.1419 C   0  0  0  0  0  0  0  0  0  0  0  0
  -13.2902  -35.6014  -12.2103 C   0  0  0  0  0  0  0  0  0  0  0  0
  -12.3859  -34.9832  -13.2631 C   0  0  0  0  0  0  0  0  0  0  0  0
  -12.9896  -35.0813  -10.8262 C   0  0  0  0  0  0  0  0  0  0  0  0
  -14.7378  -35.2994  -12.5368 C   0  0  0  0  0  0  0  0  0  0  0  0
  2  1  1  1
  2  3  1  0
  3  4  1  0
  4  5  1  0
  5  6  1  0
  6  7  1  0
  7  8  1  0
  8  9  1  0
  9 10  1  0
 10 11  1  0
 11 12  2  0
 11 13  2  0
 11 14  1  0
 14 15  1  0
 15 16  1  1
 15 17  1  0
 17 18  2  0
 17 19  1  0
 19 20  1  0
 20 21  1  1
 20 22  1  0
 22 23  1  6
 22 24  1  0
 24 25  1  0
 25 26  1  0
 26 27  1  0
 27 28  1  0
 26 29  1  0
 29 30  2  0
 30 31  1  0
 31 32  2  0
 32 33  1  0
 33 34  2  0
 31 35  1  0
 35 36  1  0
 35 37  1  0
 35 38  1  0
 21  2  1  0
 28 26  1  0
 34 29  1  0
M  END
$$$$
