
     RDKit          3D

 38 40  0  0  0  0  0  0  0  0999 V2000
  -20.0980  -37.3442   -5.7538 C   0  0  0  0  0  0  0  0  0  0  0  0
  -19.3678  -38.1065   -6.8082 C   0  0  2  0  0  0  0  0  0  0  0  0
  -20.1567  -39.2053   -7.4304 C   0  0  0  0  0  0  0  0  0  0  0  0
  -21.6388  -39.0040   -7.4048 C   0  0  0  0  0  0  0  0  0  0  0  0
  -22.3543  -39.8475   -6.3717 C   0  0  0  0  0  0  0  0  0  0  0  0
  -23.1587  -40.9685   -7.0501 C   0  0  0  0  0  0  0  0  0  0  0  0
  -22.1246  -41.9086   -7.6252 C   0  0  0  0  0  0  0  0  0  0  0  0
  -22.6874  -43.1632   -8.1976 C   0  0  0  0  0  0  0  0  0  0  0  0
  -21.5147  -44.0885   -8.5031 C   0  0  0  0  0  0  0  0  0  0  0  0
  -20.2804  -43.3080   -8.9035 C   0  0  0  0  0  0  0  0  0  0  0  0
  -18.9181  -44.4266   -9.0140 S   0  0  0  0  0  6  0  0  0  0  0  0
  -18.9135  -45.2540   -7.7627 O   0  0  0  0  0  0  0  0  0  0  0  0
  -19.2780  -45.4079  -10.1265 O   0  0  0  0  0  0  0  0  0  0  0  0
  -17.3927  -43.7120   -9.3998 C   0  0  0  0  0  0  0  0  0  0  0  0
  -17.1647  -42.2884   -8.9903 C   0  0  1  0  0  0  0  0  0  0  0  0
  -17.8678  -41.3730   -9.9271 C   0  0  0  0  0  0  0  0  0  0  0  0
  -17.3321  -42.0809   -7.5688 C   0  0  0  0  0  0  0  0  0  0  0  0
  -17.6609  -43.1167   -6.8877 O   0  0  0  0  0  0  0  0  0  0  0  0
  -17.1931  -40.9189   -6.7925 N   0  0  0  0  0  0  0  0  0  0  0  0
  -17.3622  -39.5487   -7.1915 C   0  0  1  0  0  0  0  0  0  0  0  0
  -18.0935  -38.6987   -6.1857 C   0  0  0  0  0  0  0  0  0  0  0  0
  -15.9965  -38.9237   -7.4253 C   0  0  2  0  0  0  0  0  0  0  0  0
  -16.1341  -37.6154   -7.9076 O   0  0  0  0  0  0  0  0  0  0  0  0
  -15.2850  -39.7370   -8.4877 C   0  0  0  0  0  0  0  0  0  0  0  0
  -13.8645  -39.6904   -8.1358 N   0  0  0  0  0  0  0  0  0  0  0  0
  -13.1360  -39.8603   -9.3955 C   0  0  0  0  0  0  0  0  0  0  0  0
  -11.6759  -40.1191   -9.3425 C   0  0  0  0  0  0  0  0  0  0  0  0
  -12.6571  -41.2349   -9.6409 C   0  0  0  0  0  0  0  0  0  0  0  0
  -13.6778  -39.0223  -10.4786 C   0  0  0  0  0  0  0  0  0  0  0  0
  -13.0402  -37.9094  -10.9196 C   0  0  0  0  0  0  0  0  0  0  0  0
  -13.5953  -37.1530  -11.9477 C   0  0  0  0  0  0  0  0  0  0  0  0
  -14.7894  -37.5095  -12.5356 C   0  0  0  0  0  0  0  0  0  0  0  0
  -15.4090  -38.6436  -12.0638 C   0  0  0  0  0  0  0  0  0  0  0  0
  -14.8756  -39.3923  -11.0582 C   0  0  0  0  0  0  0  0  0  0  0  0
  -12.8388  -35.9442  -12.3810 C   0  0  0  0  0  0  0  0  0  0  0  0
  -13.5986  -35.3447  -13.5522 C   0  0  0  0  0  0  0  0  0  0  0  0
  -11.4500  -36.3865  -12.7709 C   0  0  0  0  0  0  0  0  0  0  0  0
  -12.7269  -34.9246  -11.2668 C   0  0  0  0  0  0  0  0  0  0  0  0
  2  1  1  1
  2  3  1  0
  3  4  1  0
  4  5  1  0
  5  6  1  0
  6  7  1  0
  7  8  1  0
  8  9  1  0
  9 10  1  0
 10 11  1  0
 11 12  2  0
 11 13  2  0
 11 14  1  0
 14 15  1  0
 15 16  1  6
 15 17  1  0
 17 18  2  0
 17 19  1  0
 19 20  1  0
 20 21  1  1
 20 22  1  0
 22 23  1  6
 22 24  1  0
 24 25  1  0
 25 26  1  0
 26 27  1  0
 27 28  1  0
 26 29  1  0
 29 30  2  0
 30 31  1  0
 31 32  2  0
 32 33  1  0
 33 34  2  0
 31 35  1  0
 35 36  1  0
 35 37  1  0
 35 38  1  0
 21  2  1  0
 28 26  1  0
 34 29  1  0
M  END
$$$$
