
     RDKit          3D

 38 40  0  0  0  0  0  0  0  0999 V2000
  -15.0767  -35.4104  -10.1949 C   0  0  0  0  0  0  0  0  0  0  0  0
  -14.7278  -36.7348   -9.6032 C   0  0  2  0  0  0  0  0  0  0  0  0
  -13.4987  -37.3566  -10.1685 C   0  0  0  0  0  0  0  0  0  0  0  0
  -12.5015  -36.3857  -10.7170 C   0  0  0  0  0  0  0  0  0  0  0  0
  -12.4749  -36.3228  -12.2290 C   0  0  0  0  0  0  0  0  0  0  0  0
  -11.1924  -36.9712  -12.7759 C   0  0  0  0  0  0  0  0  0  0  0  0
  -11.3358  -38.4466  -12.4819 C   0  0  0  0  0  0  0  0  0  0  0  0
  -10.2652  -39.2964  -13.0735 C   0  0  0  0  0  0  0  0  0  0  0  0
  -10.6887  -40.7502  -12.8939 C   0  0  0  0  0  0  0  0  0  0  0  0
  -11.4891  -40.9431  -11.6230 C   0  0  0  0  0  0  0  0  0  0  0  0
  -12.1320  -42.5879  -11.6067 S   0  0  0  0  0  6  0  0  0  0  0  0
  -12.7681  -42.8350  -12.9426 O   0  0  0  0  0  0  0  0  0  0  0  0
  -10.9140  -43.5078  -11.5810 O   0  0  0  0  0  0  0  0  0  0  0  0
  -13.1350  -42.9857  -10.2568 C   0  0  0  0  0  0  0  0  0  0  0  0
  -13.8977  -41.8743   -9.6018 C   0  0  1  0  0  0  0  0  0  0  0  0
  -12.9894  -41.0789   -8.7346 C   0  0  0  0  0  0  0  0  0  0  0  0
  -14.7626  -41.1702  -10.5225 C   0  0  0  0  0  0  0  0  0  0  0  0
  -14.7362  -41.5789  -11.7378 O   0  0  0  0  0  0  0  0  0  0  0  0
  -15.6429  -40.0968  -10.3098 N   0  0  0  0  0  0  0  0  0  0  0  0
  -15.5764  -39.0678   -9.3087 C   0  0  1  0  0  0  0  0  0  0  0  0
  -15.9127  -37.6901   -9.8165 C   0  0  0  0  0  0  0  0  0  0  0  0
  -16.5444  -39.4000   -8.1850 C   0  0  2  0  0  0  0  0  0  0  0  0
  -15.8493  -39.6029   -6.9854 O   0  0  0  0  0  0  0  0  0  0  0  0
  -17.2463  -40.6955   -8.5391 C   0  0  0  0  0  0  0  0  0  0  0  0
  -18.0770  -40.3890   -9.7051 N   0  0  0  0  0  0  0  0  0  0  0  0
  -19.3140  -41.1532   -9.5252 C   0  0  0  0  0  0  0  0  0  0  0  0
  -20.2975  -41.1848  -10.6357 C   0  0  0  0  0  0  0  0  0  0  0  0
  -19.4013  -42.3734  -10.3513 C   0  0  0  0  0  0  0  0  0  0  0  0
  -19.8009  -41.1204   -8.1356 C   0  0  0  0  0  0  0  0  0  0  0  0
  -20.7533  -40.2471   -7.7237 C   0  0  0  0  0  0  0  0  0  0  0  0
  -21.1793  -40.2588   -6.3986 C   0  0  0  0  0  0  0  0  0  0  0  0
  -20.6522  -41.1445   -5.4841 C   0  0  0  0  0  0  0  0  0  0  0  0
  -19.6882  -42.0159   -5.9359 C   0  0  0  0  0  0  0  0  0  0  0  0
  -19.2632  -42.0142   -7.2304 C   0  0  0  0  0  0  0  0  0  0  0  0
  -22.2291  -39.2717   -6.0180 C   0  0  0  0  0  0  0  0  0  0  0  0
  -23.3417  -40.0515   -5.3378 C   0  0  0  0  0  0  0  0  0  0  0  0
  -22.7005  -38.5925   -7.2801 C   0  0  0  0  0  0  0  0  0  0  0  0
  -21.6905  -38.2177   -5.0735 C   0  0  0  0  0  0  0  0  0  0  0  0
  2  1  1  6
  2  3  1  0
  3  4  1  0
  4  5  1  0
  5  6  1  0
  6  7  1  0
  7  8  1  0
  8  9  1  0
  9 10  1  0
 10 11  1  0
 11 12  2  0
 11 13  2  0
 11 14  1  0
 14 15  1  0
 15 16  1  6
 15 17  1  0
 17 18  2  0
 17 19  1  0
 19 20  1  0
 20 21  1  6
 20 22  1  0
 22 23  1  1
 22 24  1  0
 24 25  1  0
 25 26  1  0
 26 27  1  0
 27 28  1  0
 26 29  1  0
 29 30  2  0
 30 31  1  0
 31 32  2  0
 32 33  1  0
 33 34  2  0
 31 35  1  0
 35 36  1  0
 35 37  1  0
 35 38  1  0
 21  2  1  0
 28 26  1  0
 34 29  1  0
M  END
$$$$
