
     RDKit          3D

 38 40  0  0  0  0  0  0  0  0999 V2000
  -19.2113  -37.0094   -7.8715 C   0  0  0  0  0  0  0  0  0  0  0  0
  -19.2357  -38.4126   -8.3777 C   0  0  2  0  0  0  0  0  0  0  0  0
  -20.3558  -39.2382   -7.8481 C   0  0  0  0  0  0  0  0  0  0  0  0
  -21.5701  -38.4621   -7.4468 C   0  0  0  0  0  0  0  0  0  0  0  0
  -21.7327  -38.3090   -5.9498 C   0  0  0  0  0  0  0  0  0  0  0  0
  -22.8981  -39.1728   -5.4400 C   0  0  0  0  0  0  0  0  0  0  0  0
  -22.4360  -40.6022   -5.6050 C   0  0  0  0  0  0  0  0  0  0  0  0
  -23.3575  -41.6158   -5.0205 C   0  0  0  0  0  0  0  0  0  0  0  0
  -22.6357  -42.9585   -5.0547 C   0  0  0  0  0  0  0  0  0  0  0  0
  -21.7115  -43.0624   -6.2498 C   0  0  0  0  0  0  0  0  0  0  0  0
  -20.7503  -44.5357   -6.0917 S   0  0  0  0  0  6  0  0  0  0  0  0
  -20.1890  -44.5589   -4.7008 O   0  0  0  0  0  0  0  0  0  0  0  0
  -21.7511  -45.6879   -6.1253 O   0  0  0  0  0  0  0  0  0  0  0  0
  -19.5805  -44.8027   -7.3353 C   0  0  0  0  0  0  0  0  0  0  0  0
  -19.0071  -43.6017   -8.0245 C   0  0  1  0  0  0  0  0  0  0  0  0
  -19.9832  -43.0696   -9.0112 C   0  0  0  0  0  0  0  0  0  0  0  0
  -18.3807  -42.6756   -7.1070 C   0  0  0  0  0  0  0  0  0  0  0  0
  -18.4234  -43.0019   -5.8675 O   0  0  0  0  0  0  0  0  0  0  0  0
  -17.7211  -41.4589   -7.3453 N   0  0  0  0  0  0  0  0  0  0  0  0
  -17.9119  -40.5327   -8.4275 C   0  0  1  0  0  0  0  0  0  0  0  0
  -17.9037  -39.0855   -8.0100 C   0  0  0  0  0  0  0  0  0  0  0  0
  -16.8080  -40.7284   -9.4538 C   0  0  2  0  0  0  0  0  0  0  0  0
  -16.3093  -42.0364   -9.3915 O   0  0  0  0  0  0  0  0  0  0  0  0
  -15.6749  -39.7832   -9.1089 C   0  0  0  0  0  0  0  0  0  0  0  0
  -14.4528  -40.4484   -9.5643 N   0  0  0  0  0  0  0  0  0  0  0  0
  -13.5207  -39.3736   -9.9146 C   0  0  0  0  0  0  0  0  0  0  0  0
  -12.5513  -38.9121   -8.8906 C   0  0  0  0  0  0  0  0  0  0  0  0
  -12.1138  -39.8035  -10.0356 C   0  0  0  0  0  0  0  0  0  0  0  0
  -14.1138  -38.3903  -10.8367 C   0  0  0  0  0  0  0  0  0  0  0  0
  -14.5449  -37.1745  -10.4177 C   0  0  0  0  0  0  0  0  0  0  0  0
  -15.0969  -36.2811  -11.3312 C   0  0  0  0  0  0  0  0  0  0  0  0
  -15.2182  -36.6036  -12.6653 C   0  0  0  0  0  0  0  0  0  0  0  0
  -14.7710  -37.8447  -13.0557 C   0  0  0  0  0  0  0  0  0  0  0  0
  -14.2288  -38.7277  -12.1710 C   0  0  0  0  0  0  0  0  0  0  0  0
  -15.5479  -34.9639  -10.7994 C   0  0  0  0  0  0  0  0  0  0  0  0
  -14.4492  -34.4604   -9.8788 C   0  0  0  0  0  0  0  0  0  0  0  0
  -16.8476  -35.1852  -10.0655 C   0  0  0  0  0  0  0  0  0  0  0  0
  -15.7843  -33.9627  -11.9107 C   0  0  0  0  0  0  0  0  0  0  0  0
  2  1  1  1
  2  3  1  0
  3  4  1  0
  4  5  1  0
  5  6  1  0
  6  7  1  0
  7  8  1  0
  8  9  1  0
  9 10  1  0
 10 11  1  0
 11 12  2  0
 11 13  2  0
 11 14  1  0
 14 15  1  0
 15 16  1  1
 15 17  1  0
 17 18  2  0
 17 19  1  0
 19 20  1  0
 20 21  1  1
 20 22  1  0
 22 23  1  1
 22 24  1  0
 24 25  1  0
 25 26  1  0
 26 27  1  0
 27 28  1  0
 26 29  1  0
 29 30  2  0
 30 31  1  0
 31 32  2  0
 32 33  1  0
 33 34  2  0
 31 35  1  0
 35 36  1  0
 35 37  1  0
 35 38  1  0
 21  2  1  0
 28 26  1  0
 34 29  1  0
M  END
$$$$
