
     RDKit          3D

 38 40  0  0  0  0  0  0  0  0999 V2000
  -13.6438  -35.5920  -10.6497 C   0  0  0  0  0  0  0  0  0  0  0  0
  -13.6332  -36.8660   -9.8732 C   0  0  2  0  0  0  0  0  0  0  0  0
  -12.8099  -37.9486  -10.4789 C   0  0  0  0  0  0  0  0  0  0  0  0
  -11.6814  -37.4712  -11.3371 C   0  0  0  0  0  0  0  0  0  0  0  0
  -11.9360  -37.6179  -12.8219 C   0  0  0  0  0  0  0  0  0  0  0  0
  -11.0684  -38.7417  -13.4121 C   0  0  0  0  0  0  0  0  0  0  0  0
  -11.6210  -40.0206  -12.8266 C   0  0  0  0  0  0  0  0  0  0  0  0
  -11.0234  -41.2622  -13.3921 C   0  0  0  0  0  0  0  0  0  0  0  0
  -11.8508  -42.4370  -12.8821 C   0  0  0  0  0  0  0  0  0  0  0  0
  -12.4018  -42.1692  -11.4973 C   0  0  0  0  0  0  0  0  0  0  0  0
  -13.5265  -43.4650  -11.0785 S   0  0  0  0  0  6  0  0  0  0  0  0
  -14.4597  -43.6426  -12.2395 O   0  0  0  0  0  0  0  0  0  0  0  0
  -12.6929  -44.7436  -11.0520 O   0  0  0  0  0  0  0  0  0  0  0  0
  -14.3157  -43.3056   -9.5495 C   0  0  0  0  0  0  0  0  0  0  0  0
  -14.5311  -41.9219   -9.0155 C   0  0  1  0  0  0  0  0  0  0  0  0
  -13.2612  -41.3927   -8.4525 C   0  0  0  0  0  0  0  0  0  0  0  0
  -15.2854  -41.0834   -9.9209 C   0  0  0  0  0  0  0  0  0  0  0  0
  -15.6343  -41.6288  -11.0280 O   0  0  0  0  0  0  0  0  0  0  0  0
  -15.7095  -39.7508   -9.7929 N   0  0  0  0  0  0  0  0  0  0  0  0
  -15.1160  -38.6910   -9.0247 C   0  0  1  0  0  0  0  0  0  0  0  0
  -15.0812  -37.3613   -9.7314 C   0  0  0  0  0  0  0  0  0  0  0  0
  -15.8965  -38.5123   -7.7327 C   0  0  2  0  0  0  0  0  0  0  0  0
  -15.3252  -39.2773   -6.7071 O   0  0  0  0  0  0  0  0  0  0  0  0
  -17.3049  -39.0222   -7.9620 C   0  0  0  0  0  0  0  0  0  0  0  0
  -18.0392  -38.7218   -6.7314 N   0  0  0  0  0  0  0  0  0  0  0  0
  -19.4469  -38.6145   -7.1233 C   0  0  0  0  0  0  0  0  0  0  0  0
  -20.3427  -37.7433   -6.3232 C   0  0  0  0  0  0  0  0  0  0  0  0
  -19.8259  -37.2998   -7.6771 C   0  0  0  0  0  0  0  0  0  0  0  0
  -19.9760  -39.8720   -7.6780 C   0  0  0  0  0  0  0  0  0  0  0  0
  -21.2411  -39.9757   -8.1558 C   0  0  0  0  0  0  0  0  0  0  0  0
  -21.6913  -41.1879   -8.6708 C   0  0  0  0  0  0  0  0  0  0  0  0
  -20.8757  -42.2979   -8.7082 C   0  0  0  0  0  0  0  0  0  0  0  0
  -19.5990  -42.1573   -8.2153 C   0  0  0  0  0  0  0  0  0  0  0  0
  -19.1468  -40.9761   -7.7088 C   0  0  0  0  0  0  0  0  0  0  0  0
  -23.0920  -41.2274   -9.1787 C   0  0  0  0  0  0  0  0  0  0  0  0
  -23.1914  -42.4272  -10.1055 C   0  0  0  0  0  0  0  0  0  0  0  0
  -23.3561  -39.9286   -9.8998 C   0  0  0  0  0  0  0  0  0  0  0  0
  -24.0928  -41.3667   -8.0507 C   0  0  0  0  0  0  0  0  0  0  0  0
  2  1  1  6
  2  3  1  0
  3  4  1  0
  4  5  1  0
  5  6  1  0
  6  7  1  0
  7  8  1  0
  8  9  1  0
  9 10  1  0
 10 11  1  0
 11 12  2  0
 11 13  2  0
 11 14  1  0
 14 15  1  0
 15 16  1  6
 15 17  1  0
 17 18  2  0
 17 19  1  0
 19 20  1  0
 20 21  1  6
 20 22  1  0
 22 23  1  1
 22 24  1  0
 24 25  1  0
 25 26  1  0
 26 27  1  0
 27 28  1  0
 26 29  1  0
 29 30  2  0
 30 31  1  0
 31 32  2  0
 32 33  1  0
 33 34  2  0
 31 35  1  0
 35 36  1  0
 35 37  1  0
 35 38  1  0
 21  2  1  0
 28 26  1  0
 34 29  1  0
M  END
$$$$
