
     RDKit          3D

 38 40  0  0  0  0  0  0  0  0999 V2000
  -21.1193  -37.3010   -5.6622 C   0  0  0  0  0  0  0  0  0  0  0  0
  -20.6673  -38.0792   -6.8521 C   0  0  2  0  0  0  0  0  0  0  0  0
  -21.2684  -39.4368   -6.9638 C   0  0  0  0  0  0  0  0  0  0  0  0
  -22.6091  -39.5829   -6.3165 C   0  0  0  0  0  0  0  0  0  0  0  0
  -22.5764  -40.3306   -5.0010 C   0  0  0  0  0  0  0  0  0  0  0  0
  -23.2065  -41.7248   -5.1541 C   0  0  0  0  0  0  0  0  0  0  0  0
  -22.2495  -42.5001   -6.0299 C   0  0  0  0  0  0  0  0  0  0  0  0
  -22.5878  -43.9427   -6.1804 C   0  0  0  0  0  0  0  0  0  0  0  0
  -21.4093  -44.6149   -6.8763 C   0  0  0  0  0  0  0  0  0  0  0  0
  -20.7244  -43.6731   -7.8442 C   0  0  0  0  0  0  0  0  0  0  0  0
  -19.2469  -44.4437   -8.4294 S   0  0  0  0  0  6  0  0  0  0  0  0
  -18.5068  -44.9635   -7.2325 O   0  0  0  0  0  0  0  0  0  0  0  0
  -19.7012  -45.6943   -9.1776 O   0  0  0  0  0  0  0  0  0  0  0  0
  -18.2831  -43.4940   -9.5044 C   0  0  0  0  0  0  0  0  0  0  0  0
  -18.3505  -42.0028   -9.3704 C   0  0  1  0  0  0  0  0  0  0  0  0
  -19.6021  -41.4945   -9.9905 C   0  0  0  0  0  0  0  0  0  0  0  0
  -18.0032  -41.5436   -8.0436 C   0  0  0  0  0  0  0  0  0  0  0  0
  -17.7137  -42.4590   -7.1933 O   0  0  0  0  0  0  0  0  0  0  0  0
  -17.9266  -40.2437   -7.5177 N   0  0  0  0  0  0  0  0  0  0  0  0
  -18.6394  -39.0661   -7.9307 C   0  0  1  0  0  0  0  0  0  0  0  0
  -19.1376  -38.2151   -6.7920 C   0  0  0  0  0  0  0  0  0  0  0  0
  -17.7285  -38.2064   -8.7918 C   0  0  2  0  0  0  0  0  0  0  0  0
  -18.4423  -37.6660   -9.8696 O   0  0  0  0  0  0  0  0  0  0  0  0
  -16.6401  -39.0969   -9.3562 C   0  0  0  0  0  0  0  0  0  0  0  0
  -15.8707  -38.2501  -10.2697 N   0  0  0  0  0  0  0  0  0  0  0  0
  -14.5900  -38.9346  -10.4645 C   0  0  0  0  0  0  0  0  0  0  0  0
  -13.7208  -38.5090  -11.5892 C   0  0  0  0  0  0  0  0  0  0  0  0
  -13.4055  -38.1072  -10.1623 C   0  0  0  0  0  0  0  0  0  0  0  0
  -14.6521  -40.3615  -10.1051 C   0  0  0  0  0  0  0  0  0  0  0  0
  -13.5885  -41.0230   -9.5849 C   0  0  0  0  0  0  0  0  0  0  0  0
  -13.7009  -42.3720   -9.2610 C   0  0  0  0  0  0  0  0  0  0  0  0
  -14.8780  -43.0606   -9.4577 C   0  0  0  0  0  0  0  0  0  0  0  0
  -15.9364  -42.3589   -9.9871 C   0  0  0  0  0  0  0  0  0  0  0  0
  -15.8387  -41.0384  -10.3080 C   0  0  0  0  0  0  0  0  0  0  0  0
  -12.4920  -43.0331   -8.6928 C   0  0  0  0  0  0  0  0  0  0  0  0
  -11.6832  -43.5576   -9.8671 C   0  0  0  0  0  0  0  0  0  0  0  0
  -12.9595  -44.1427   -7.7836 C   0  0  0  0  0  0  0  0  0  0  0  0
  -11.6531  -42.0659   -7.8840 C   0  0  0  0  0  0  0  0  0  0  0  0
  2  1  1  1
  2  3  1  0
  3  4  1  0
  4  5  1  0
  5  6  1  0
  6  7  1  0
  7  8  1  0
  8  9  1  0
  9 10  1  0
 10 11  1  0
 11 12  2  0
 11 13  2  0
 11 14  1  0
 14 15  1  0
 15 16  1  1
 15 17  1  0
 17 18  2  0
 17 19  1  0
 19 20  1  0
 20 21  1  1
 20 22  1  0
 22 23  1  6
 22 24  1  0
 24 25  1  0
 25 26  1  0
 26 27  1  0
 27 28  1  0
 26 29  1  0
 29 30  2  0
 30 31  1  0
 31 32  2  0
 32 33  1  0
 33 34  2  0
 31 35  1  0
 35 36  1  0
 35 37  1  0
 35 38  1  0
 21  2  1  0
 28 26  1  0
 34 29  1  0
M  END
$$$$
