
     RDKit          3D

 38 40  0  0  0  0  0  0  0  0999 V2000
  -20.7448  -37.9847   -5.7900 C   0  0  0  0  0  0  0  0  0  0  0  0
  -19.9942  -38.6292   -6.9068 C   0  0  2  0  0  0  0  0  0  0  0  0
  -20.6279  -39.8663   -7.4405 C   0  0  0  0  0  0  0  0  0  0  0  0
  -22.1125  -39.9332   -7.2692 C   0  0  0  0  0  0  0  0  0  0  0  0
  -22.5607  -40.8660   -6.1647 C   0  0  0  0  0  0  0  0  0  0  0  0
  -23.2110  -42.1291   -6.7526 C   0  0  0  0  0  0  0  0  0  0  0  0
  -22.0845  -42.8824   -7.4215 C   0  0  0  0  0  0  0  0  0  0  0  0
  -22.4640  -44.2309   -7.9271 C   0  0  0  0  0  0  0  0  0  0  0  0
  -21.1784  -44.9383   -8.3417 C   0  0  0  0  0  0  0  0  0  0  0  0
  -20.1499  -43.9592   -8.8677 C   0  0  0  0  0  0  0  0  0  0  0  0
  -18.6251  -44.8180   -9.1058 S   0  0  0  0  0  6  0  0  0  0  0  0
  -18.3503  -45.6007   -7.8559 O   0  0  0  0  0  0  0  0  0  0  0  0
  -18.9075  -45.8746  -10.1708 O   0  0  0  0  0  0  0  0  0  0  0  0
  -17.2985  -43.8512   -9.6457 C   0  0  0  0  0  0  0  0  0  0  0  0
  -17.2930  -42.4004   -9.2701 C   0  0  1  0  0  0  0  0  0  0  0  0
  -18.2369  -41.6487  -10.1383 C   0  0  0  0  0  0  0  0  0  0  0  0
  -17.3571  -42.1919   -7.8404 C   0  0  0  0  0  0  0  0  0  0  0  0
  -17.4259  -43.2530   -7.1234 O   0  0  0  0  0  0  0  0  0  0  0  0
  -17.3560  -41.0053   -7.0892 N   0  0  0  0  0  0  0  0  0  0  0  0
  -17.8075  -39.6976   -7.4782 C   0  0  1  0  0  0  0  0  0  0  0  0
  -18.5798  -38.9682   -6.4102 C   0  0  0  0  0  0  0  0  0  0  0  0
  -16.6063  -38.8439   -7.8505 C   0  0  2  0  0  0  0  0  0  0  0  0
  -17.0231  -37.6550   -8.4637 O   0  0  0  0  0  0  0  0  0  0  0  0
  -15.7756  -39.6170   -8.8548 C   0  0  0  0  0  0  0  0  0  0  0  0
  -14.5983  -38.7868   -9.1164 N   0  0  0  0  0  0  0  0  0  0  0  0
  -14.4503  -38.7530  -10.5737 C   0  0  0  0  0  0  0  0  0  0  0  0
  -14.6727  -40.0042  -11.3396 C   0  0  0  0  0  0  0  0  0  0  0  0
  -15.7161  -38.9053  -11.3176 C   0  0  0  0  0  0  0  0  0  0  0  0
  -13.3995  -37.8193  -11.0130 C   0  0  0  0  0  0  0  0  0  0  0  0
  -12.9756  -37.7615  -12.3000 C   0  0  0  0  0  0  0  0  0  0  0  0
  -11.9797  -36.8594  -12.6628 C   0  0  0  0  0  0  0  0  0  0  0  0
  -11.4068  -36.0139  -11.7378 C   0  0  0  0  0  0  0  0  0  0  0  0
  -11.8605  -36.0993  -10.4418 C   0  0  0  0  0  0  0  0  0  0  0  0
  -12.8347  -36.9781  -10.0745 C   0  0  0  0  0  0  0  0  0  0  0  0
  -11.5649  -36.8511  -14.0944 C   0  0  0  0  0  0  0  0  0  0  0  0
  -12.0762  -38.1430  -14.7091 C   0  0  0  0  0  0  0  0  0  0  0  0
  -10.0595  -36.7583  -14.1362 C   0  0  0  0  0  0  0  0  0  0  0  0
  -12.1436  -35.6655  -14.8380 C   0  0  0  0  0  0  0  0  0  0  0  0
  2  1  1  1
  2  3  1  0
  3  4  1  0
  4  5  1  0
  5  6  1  0
  6  7  1  0
  7  8  1  0
  8  9  1  0
  9 10  1  0
 10 11  1  0
 11 12  2  0
 11 13  2  0
 11 14  1  0
 14 15  1  0
 15 16  1  6
 15 17  1  0
 17 18  2  0
 17 19  1  0
 19 20  1  0
 20 21  1  1
 20 22  1  0
 22 23  1  6
 22 24  1  0
 24 25  1  0
 25 26  1  0
 26 27  1  0
 27 28  1  0
 26 29  1  0
 29 30  2  0
 30 31  1  0
 31 32  2  0
 32 33  1  0
 33 34  2  0
 31 35  1  0
 35 36  1  0
 35 37  1  0
 35 38  1  0
 21  2  1  0
 28 26  1  0
 34 29  1  0
M  END
$$$$
