
     RDKit          3D

 38 40  0  0  0  0  0  0  0  0999 V2000
  -19.3073  -37.0533   -7.0349 C   0  0  0  0  0  0  0  0  0  0  0  0
  -19.2181  -38.3576   -7.7539 C   0  0  2  0  0  0  0  0  0  0  0  0
  -20.4153  -39.2290   -7.5979 C   0  0  0  0  0  0  0  0  0  0  0  0
  -21.6916  -38.4969   -7.3283 C   0  0  0  0  0  0  0  0  0  0  0  0
  -22.1532  -38.5790   -5.8891 C   0  0  0  0  0  0  0  0  0  0  0  0
  -23.3902  -39.4839   -5.7674 C   0  0  0  0  0  0  0  0  0  0  0  0
  -22.8929  -40.8800   -6.0635 C   0  0  0  0  0  0  0  0  0  0  0  0
  -23.9051  -41.9505   -5.8449 C   0  0  0  0  0  0  0  0  0  0  0  0
  -23.1803  -43.2881   -5.9489 C   0  0  0  0  0  0  0  0  0  0  0  0
  -22.0339  -43.2239   -6.9361 C   0  0  0  0  0  0  0  0  0  0  0  0
  -21.1124  -44.7266   -6.8273 S   0  0  0  0  0  6  0  0  0  0  0  0
  -20.8421  -44.9837   -5.3743 O   0  0  0  0  0  0  0  0  0  0  0  0
  -22.0767  -45.8342   -7.2442 O   0  0  0  0  0  0  0  0  0  0  0  0
  -19.7144  -44.8218   -7.8385 C   0  0  0  0  0  0  0  0  0  0  0  0
  -19.0237  -43.5411   -8.1978 C   0  0  1  0  0  0  0  0  0  0  0  0
  -19.7857  -42.8357   -9.2614 C   0  0  0  0  0  0  0  0  0  0  0  0
  -18.6020  -42.7877   -7.0375 C   0  0  0  0  0  0  0  0  0  0  0  0
  -18.8905  -43.3052   -5.9000 O   0  0  0  0  0  0  0  0  0  0  0  0
  -17.9177  -41.5651   -6.9413 N   0  0  0  0  0  0  0  0  0  0  0  0
  -17.8945  -40.4747   -7.8772 C   0  0  1  0  0  0  0  0  0  0  0  0
  -17.9820  -39.1126   -7.2401 C   0  0  0  0  0  0  0  0  0  0  0  0
  -16.6052  -40.5323   -8.6801 C   0  0  2  0  0  0  0  0  0  0  0  0
  -16.7800  -39.9221   -9.9293 O   0  0  0  0  0  0  0  0  0  0  0  0
  -16.2671  -41.9899   -8.9193 C   0  0  0  0  0  0  0  0  0  0  0  0
  -14.9298  -41.9928   -9.5154 N   0  0  0  0  0  0  0  0  0  0  0  0
  -14.3361  -43.2832   -9.1562 C   0  0  0  0  0  0  0  0  0  0  0  0
  -12.8574  -43.4059   -9.1436 C   0  0  0  0  0  0  0  0  0  0  0  0
  -13.6434  -43.2925   -7.8528 C   0  0  0  0  0  0  0  0  0  0  0  0
  -15.1475  -44.4246   -9.6120 C   0  0  0  0  0  0  0  0  0  0  0  0
  -15.2353  -44.7727  -10.9199 C   0  0  0  0  0  0  0  0  0  0  0  0
  -16.0156  -45.8617  -11.2974 C   0  0  0  0  0  0  0  0  0  0  0  0
  -16.7092  -46.6035  -10.3662 C   0  0  0  0  0  0  0  0  0  0  0  0
  -16.5978  -46.2226   -9.0489 C   0  0  0  0  0  0  0  0  0  0  0  0
  -15.8370  -45.1587   -8.6671 C   0  0  0  0  0  0  0  0  0  0  0  0
  -16.0641  -46.1861  -12.7513 C   0  0  0  0  0  0  0  0  0  0  0  0
  -17.4896  -45.9333  -13.2122 C   0  0  0  0  0  0  0  0  0  0  0  0
  -15.6621  -47.6314  -12.9134 C   0  0  0  0  0  0  0  0  0  0  0  0
  -15.1072  -45.3253  -13.5492 C   0  0  0  0  0  0  0  0  0  0  0  0
  2  1  1  1
  2  3  1  0
  3  4  1  0
  4  5  1  0
  5  6  1  0
  6  7  1  0
  7  8  1  0
  8  9  1  0
  9 10  1  0
 10 11  1  0
 11 12  2  0
 11 13  2  0
 11 14  1  0
 14 15  1  0
 15 16  1  1
 15 17  1  0
 17 18  2  0
 17 19  1  0
 19 20  1  0
 20 21  1  1
 20 22  1  0
 22 23  1  6
 22 24  1  0
 24 25  1  0
 25 26  1  0
 26 27  1  0
 27 28  1  0
 26 29  1  0
 29 30  2  0
 30 31  1  0
 31 32  2  0
 32 33  1  0
 33 34  2  0
 31 35  1  0
 35 36  1  0
 35 37  1  0
 35 38  1  0
 21  2  1  0
 28 26  1  0
 34 29  1  0
M  END
$$$$
