
     RDKit          3D

 38 40  0  0  0  0  0  0  0  0999 V2000
  -12.8234  -38.1162  -11.1765 C   0  0  0  0  0  0  0  0  0  0  0  0
  -13.2629  -39.1479  -10.1925 C   0  0  2  0  0  0  0  0  0  0  0  0
  -12.8826  -40.5420  -10.5515 C   0  0  0  0  0  0  0  0  0  0  0  0
  -11.6629  -40.6566  -11.4099 C   0  0  0  0  0  0  0  0  0  0  0  0
  -11.9612  -40.9733  -12.8596 C   0  0  0  0  0  0  0  0  0  0  0  0
  -11.5539  -42.4178  -13.1938 C   0  0  0  0  0  0  0  0  0  0  0  0
  -12.5226  -43.2913  -12.4304 C   0  0  0  0  0  0  0  0  0  0  0  0
  -12.4096  -44.7446  -12.7360 C   0  0  0  0  0  0  0  0  0  0  0  0
  -13.5984  -45.4397  -12.0814 C   0  0  0  0  0  0  0  0  0  0  0  0
  -14.0102  -44.7472  -10.7993 C   0  0  0  0  0  0  0  0  0  0  0  0
  -15.5204  -45.4657  -10.2314 S   0  0  0  0  0  6  0  0  0  0  0  0
  -16.4620  -45.5133  -11.3981 O   0  0  0  0  0  0  0  0  0  0  0  0
  -15.1967  -46.9277   -9.9344 O   0  0  0  0  0  0  0  0  0  0  0  0
  -16.1926  -44.7627   -8.8030 C   0  0  0  0  0  0  0  0  0  0  0  0
  -15.8981  -43.3188   -8.5300 C   0  0  1  0  0  0  0  0  0  0  0  0
  -14.5199  -43.1758   -7.9915 C   0  0  0  0  0  0  0  0  0  0  0  0
  -16.3092  -42.4495   -9.6102 C   0  0  0  0  0  0  0  0  0  0  0  0
  -16.8356  -43.0301  -10.6254 O   0  0  0  0  0  0  0  0  0  0  0  0
  -16.2302  -41.0533   -9.7400 N   0  0  0  0  0  0  0  0  0  0  0  0
  -15.2939  -40.1481   -9.1321 C   0  0  1  0  0  0  0  0  0  0  0  0
  -14.7916  -39.0684  -10.0545 C   0  0  0  0  0  0  0  0  0  0  0  0
  -15.9524  -39.4739   -7.9397 C   0  0  2  0  0  0  0  0  0  0  0  0
  -16.1070  -40.3855   -6.8869 O   0  0  0  0  0  0  0  0  0  0  0  0
  -17.3335  -39.0168   -8.3638 C   0  0  0  0  0  0  0  0  0  0  0  0
  -18.2149  -39.3223   -7.2353 N   0  0  0  0  0  0  0  0  0  0  0  0
  -19.5335  -38.8033   -7.6075 C   0  0  0  0  0  0  0  0  0  0  0  0
  -19.6210  -37.4475   -8.2038 C   0  0  0  0  0  0  0  0  0  0  0  0
  -19.7540  -38.6891   -9.0626 C   0  0  0  0  0  0  0  0  0  0  0  0
  -20.5968  -39.2563   -6.6947 C   0  0  0  0  0  0  0  0  0  0  0  0
  -21.9121  -39.1537   -7.0094 C   0  0  0  0  0  0  0  0  0  0  0  0
  -22.8774  -39.5986   -6.1108 C   0  0  0  0  0  0  0  0  0  0  0  0
  -22.5275  -40.1465   -4.8960 C   0  0  0  0  0  0  0  0  0  0  0  0
  -21.1848  -40.2352   -4.6092 C   0  0  0  0  0  0  0  0  0  0  0  0
  -20.2306  -39.8034   -5.4807 C   0  0  0  0  0  0  0  0  0  0  0  0
  -24.3021  -39.4551   -6.5243 C   0  0  0  0  0  0  0  0  0  0  0  0
  -24.7203  -38.0355   -6.1805 C   0  0  0  0  0  0  0  0  0  0  0  0
  -25.1061  -40.4836   -5.7677 C   0  0  0  0  0  0  0  0  0  0  0  0
  -24.4814  -39.6970   -8.0085 C   0  0  0  0  0  0  0  0  0  0  0  0
  2  1  1  6
  2  3  1  0
  3  4  1  0
  4  5  1  0
  5  6  1  0
  6  7  1  0
  7  8  1  0
  8  9  1  0
  9 10  1  0
 10 11  1  0
 11 12  2  0
 11 13  2  0
 11 14  1  0
 14 15  1  0
 15 16  1  6
 15 17  1  0
 17 18  2  0
 17 19  1  0
 19 20  1  0
 20 21  1  6
 20 22  1  0
 22 23  1  1
 22 24  1  0
 24 25  1  0
 25 26  1  0
 26 27  1  0
 27 28  1  0
 26 29  1  0
 29 30  2  0
 30 31  1  0
 31 32  2  0
 32 33  1  0
 33 34  2  0
 31 35  1  0
 35 36  1  0
 35 37  1  0
 35 38  1  0
 21  2  1  0
 28 26  1  0
 34 29  1  0
M  END
$$$$
