
     RDKit          3D

 38 40  0  0  0  0  0  0  0  0999 V2000
  -20.3396  -37.5750   -6.4578 C   0  0  0  0  0  0  0  0  0  0  0  0
  -19.6965  -38.5384   -7.3981 C   0  0  2  0  0  0  0  0  0  0  0  0
  -20.4846  -39.7776   -7.6434 C   0  0  0  0  0  0  0  0  0  0  0  0
  -21.9624  -39.6246   -7.4681 C   0  0  0  0  0  0  0  0  0  0  0  0
  -22.4929  -40.2260   -6.1845 C   0  0  0  0  0  0  0  0  0  0  0  0
  -23.3019  -41.5005   -6.4769 C   0  0  0  0  0  0  0  0  0  0  0  0
  -22.2883  -42.5146   -6.9546 C   0  0  0  0  0  0  0  0  0  0  0  0
  -22.8367  -43.8860   -7.1464 C   0  0  0  0  0  0  0  0  0  0  0  0
  -21.6541  -44.8181   -7.3859 C   0  0  0  0  0  0  0  0  0  0  0  0
  -20.5289  -44.1129   -8.1135 C   0  0  0  0  0  0  0  0  0  0  0  0
  -19.1227  -45.1810   -8.1460 S   0  0  0  0  0  6  0  0  0  0  0  0
  -18.9144  -45.6921   -6.7512 O   0  0  0  0  0  0  0  0  0  0  0  0
  -19.5528  -46.4066   -8.9480 O   0  0  0  0  0  0  0  0  0  0  0  0
  -17.7032  -44.5268   -8.8832 C   0  0  0  0  0  0  0  0  0  0  0  0
  -17.5169  -43.0403   -8.8428 C   0  0  1  0  0  0  0  0  0  0  0  0
  -18.3844  -42.3930   -9.8617 C   0  0  0  0  0  0  0  0  0  0  0  0
  -17.5232  -42.5116   -7.4966 C   0  0  0  0  0  0  0  0  0  0  0  0
  -17.7012  -43.3695   -6.5601 O   0  0  0  0  0  0  0  0  0  0  0  0
  -17.3640  -41.1963   -7.0308 N   0  0  0  0  0  0  0  0  0  0  0  0
  -17.6658  -39.9637   -7.7055 C   0  0  1  0  0  0  0  0  0  0  0  0
  -18.3214  -38.9265   -6.8318 C   0  0  0  0  0  0  0  0  0  0  0  0
  -16.3805  -39.3664   -8.2544 C   0  0  2  0  0  0  0  0  0  0  0  0
  -16.6088  -38.7849   -9.5087 O   0  0  0  0  0  0  0  0  0  0  0  0
  -15.3828  -40.4918   -8.4398 C   0  0  0  0  0  0  0  0  0  0  0  0
  -14.0731  -39.9134   -8.1334 N   0  0  0  0  0  0  0  0  0  0  0  0
  -13.1592  -40.4332   -9.1538 C   0  0  0  0  0  0  0  0  0  0  0  0
  -11.8078  -40.8807   -8.7355 C   0  0  0  0  0  0  0  0  0  0  0  0
  -12.8987  -41.8828   -9.0558 C   0  0  0  0  0  0  0  0  0  0  0  0
  -13.3225  -39.7601  -10.4535 C   0  0  0  0  0  0  0  0  0  0  0  0
  -13.1110  -38.4296  -10.6103 C   0  0  0  0  0  0  0  0  0  0  0  0
  -13.2781  -37.8430  -11.8614 C   0  0  0  0  0  0  0  0  0  0  0  0
  -13.6572  -38.5874  -12.9572 C   0  0  0  0  0  0  0  0  0  0  0  0
  -13.8633  -39.9336  -12.7623 C   0  0  0  0  0  0  0  0  0  0  0  0
  -13.7028  -40.5193  -11.5427 C   0  0  0  0  0  0  0  0  0  0  0  0
  -13.0275  -36.3770  -11.9588 C   0  0  0  0  0  0  0  0  0  0  0  0
  -13.8182  -35.8729  -13.1542 C   0  0  0  0  0  0  0  0  0  0  0  0
  -11.5425  -36.1752  -12.1334 C   0  0  0  0  0  0  0  0  0  0  0  0
  -13.4709  -35.6489  -10.7071 C   0  0  0  0  0  0  0  0  0  0  0  0
  2  1  1  1
  2  3  1  0
  3  4  1  0
  4  5  1  0
  5  6  1  0
  6  7  1  0
  7  8  1  0
  8  9  1  0
  9 10  1  0
 10 11  1  0
 11 12  2  0
 11 13  2  0
 11 14  1  0
 14 15  1  0
 15 16  1  6
 15 17  1  0
 17 18  2  0
 17 19  1  0
 19 20  1  0
 20 21  1  1
 20 22  1  0
 22 23  1  6
 22 24  1  0
 24 25  1  0
 25 26  1  0
 26 27  1  0
 27 28  1  0
 26 29  1  0
 29 30  2  0
 30 31  1  0
 31 32  2  0
 32 33  1  0
 33 34  2  0
 31 35  1  0
 35 36  1  0
 35 37  1  0
 35 38  1  0
 21  2  1  0
 28 26  1  0
 34 29  1  0
M  END
$$$$
