
     RDKit          3D

 38 40  0  0  0  0  0  0  0  0999 V2000
  -19.8423  -37.3514   -9.0167 C   0  0  0  0  0  0  0  0  0  0  0  0
  -19.5748  -38.8152   -9.1248 C   0  0  2  0  0  0  0  0  0  0  0  0
  -20.5426  -39.6734   -8.3873 C   0  0  0  0  0  0  0  0  0  0  0  0
  -21.9004  -39.0724   -8.2059 C   0  0  0  0  0  0  0  0  0  0  0  0
  -22.1626  -38.5619   -6.8054 C   0  0  0  0  0  0  0  0  0  0  0  0
  -23.1664  -39.4703   -6.0765 C   0  0  0  0  0  0  0  0  0  0  0  0
  -22.4338  -40.7727   -5.8509 C   0  0  0  0  0  0  0  0  0  0  0  0
  -23.1737  -41.7548   -5.0105 C   0  0  0  0  0  0  0  0  0  0  0  0
  -22.2093  -42.8896   -4.6835 C   0  0  0  0  0  0  0  0  0  0  0  0
  -21.2245  -43.1241   -5.8096 C   0  0  0  0  0  0  0  0  0  0  0  0
  -20.0100  -44.2842   -5.2631 S   0  0  0  0  0  6  0  0  0  0  0  0
  -19.5238  -43.8264   -3.9199 O   0  0  0  0  0  0  0  0  0  0  0  0
  -20.7709  -45.5770   -4.9801 O   0  0  0  0  0  0  0  0  0  0  0  0
  -18.7511  -44.6373   -6.3929 C   0  0  0  0  0  0  0  0  0  0  0  0
  -18.3828  -43.5744   -7.3832 C   0  0  1  0  0  0  0  0  0  0  0  0
  -19.3924  -43.5259   -8.4732 C   0  0  0  0  0  0  0  0  0  0  0  0
  -17.9896  -42.3337   -6.7527 C   0  0  0  0  0  0  0  0  0  0  0  0
  -18.0306  -42.3206   -5.4710 O   0  0  0  0  0  0  0  0  0  0  0  0
  -17.5621  -41.1192   -7.3136 N   0  0  0  0  0  0  0  0  0  0  0  0
  -17.8718  -40.5700   -8.6051 C   0  0  1  0  0  0  0  0  0  0  0  0
  -18.1591  -39.0914   -8.5942 C   0  0  0  0  0  0  0  0  0  0  0  0
  -16.7016  -40.8110   -9.5447 C   0  0  2  0  0  0  0  0  0  0  0  0
  -16.4137  -42.1799   -9.6253 O   0  0  0  0  0  0  0  0  0  0  0  0
  -15.4860  -40.1148   -8.9669 C   0  0  0  0  0  0  0  0  0  0  0  0
  -14.3298  -40.7312   -9.6201 N   0  0  0  0  0  0  0  0  0  0  0  0
  -13.6901  -39.6618  -10.3907 C   0  0  0  0  0  0  0  0  0  0  0  0
  -12.4391  -39.0596   -9.8673 C   0  0  0  0  0  0  0  0  0  0  0  0
  -12.4102  -40.0455  -11.0179 C   0  0  0  0  0  0  0  0  0  0  0  0
  -14.6662  -38.8024  -11.0818 C   0  0  0  0  0  0  0  0  0  0  0  0
  -14.6537  -37.4516  -10.9605 C   0  0  0  0  0  0  0  0  0  0  0  0
  -15.5986  -36.6853  -11.6367 C   0  0  0  0  0  0  0  0  0  0  0  0
  -16.5573  -37.2701  -12.4351 C   0  0  0  0  0  0  0  0  0  0  0  0
  -16.5409  -38.6422  -12.5354 C   0  0  0  0  0  0  0  0  0  0  0  0
  -15.6211  -39.4030  -11.8786 C   0  0  0  0  0  0  0  0  0  0  0  0
  -15.5235  -35.2076  -11.4572 C   0  0  0  0  0  0  0  0  0  0  0  0
  -15.8293  -34.9248   -9.9961 C   0  0  0  0  0  0  0  0  0  0  0  0
  -16.5372  -34.5802  -12.3820 C   0  0  0  0  0  0  0  0  0  0  0  0
  -14.1516  -34.6702  -11.8070 C   0  0  0  0  0  0  0  0  0  0  0  0
  2  1  1  1
  2  3  1  0
  3  4  1  0
  4  5  1  0
  5  6  1  0
  6  7  1  0
  7  8  1  0
  8  9  1  0
  9 10  1  0
 10 11  1  0
 11 12  2  0
 11 13  2  0
 11 14  1  0
 14 15  1  0
 15 16  1  6
 15 17  1  0
 17 18  2  0
 17 19  1  0
 19 20  1  0
 20 21  1  1
 20 22  1  0
 22 23  1  1
 22 24  1  0
 24 25  1  0
 25 26  1  0
 26 27  1  0
 27 28  1  0
 26 29  1  0
 29 30  2  0
 30 31  1  0
 31 32  2  0
 32 33  1  0
 33 34  2  0
 31 35  1  0
 35 36  1  0
 35 37  1  0
 35 38  1  0
 21  2  1  0
 28 26  1  0
 34 29  1  0
M  END
$$$$
