
     RDKit          3D

 38 40  0  0  0  0  0  0  0  0999 V2000
  -20.3661  -37.3430   -6.4344 C   0  0  0  0  0  0  0  0  0  0  0  0
  -19.7804  -38.3452   -7.3716 C   0  0  2  0  0  0  0  0  0  0  0  0
  -20.5933  -39.5817   -7.5367 C   0  0  0  0  0  0  0  0  0  0  0  0
  -22.0589  -39.4040   -7.2955 C   0  0  0  0  0  0  0  0  0  0  0  0
  -22.5330  -39.9558   -5.9682 C   0  0  0  0  0  0  0  0  0  0  0  0
  -23.3695  -41.2287   -6.1781 C   0  0  0  0  0  0  0  0  0  0  0  0
  -22.3918  -42.2710   -6.6698 C   0  0  0  0  0  0  0  0  0  0  0  0
  -22.9642  -43.6408   -6.7885 C   0  0  0  0  0  0  0  0  0  0  0  0
  -21.8051  -44.5955   -7.0533 C   0  0  0  0  0  0  0  0  0  0  0  0
  -20.7088  -43.9292   -7.8577 C   0  0  0  0  0  0  0  0  0  0  0  0
  -19.3179  -45.0157   -7.9220 S   0  0  0  0  0  6  0  0  0  0  0  0
  -19.0477  -45.4830   -6.5224 O   0  0  0  0  0  0  0  0  0  0  0  0
  -19.8002  -46.2616   -8.6605 O   0  0  0  0  0  0  0  0  0  0  0  0
  -17.9288  -44.4045   -8.7485 C   0  0  0  0  0  0  0  0  0  0  0  0
  -17.7241  -42.9199   -8.7672 C   0  0  1  0  0  0  0  0  0  0  0  0
  -18.6329  -42.2957   -9.7643 C   0  0  0  0  0  0  0  0  0  0  0  0
  -17.6590  -42.3469   -7.4409 C   0  0  0  0  0  0  0  0  0  0  0  0
  -17.8008  -43.1710   -6.4685 O   0  0  0  0  0  0  0  0  0  0  0  0
  -17.4626  -41.0191   -7.0280 N   0  0  0  0  0  0  0  0  0  0  0  0
  -17.7831  -39.8058   -7.7284 C   0  0  1  0  0  0  0  0  0  0  0  0
  -18.3838  -38.7319   -6.8596 C   0  0  0  0  0  0  0  0  0  0  0  0
  -16.5194  -39.2435   -8.3586 C   0  0  2  0  0  0  0  0  0  0  0  0
  -16.8305  -38.5290   -9.5231 O   0  0  0  0  0  0  0  0  0  0  0  0
  -15.6339  -40.4085   -8.7520 C   0  0  0  0  0  0  0  0  0  0  0  0
  -14.3149  -39.8307   -9.0167 N   0  0  0  0  0  0  0  0  0  0  0  0
  -14.0277  -40.1209  -10.4238 C   0  0  0  0  0  0  0  0  0  0  0  0
  -14.1303  -39.0188  -11.4119 C   0  0  0  0  0  0  0  0  0  0  0  0
  -12.7813  -39.5122  -10.9286 C   0  0  0  0  0  0  0  0  0  0  0  0
  -14.4429  -41.4783  -10.8165 C   0  0  0  0  0  0  0  0  0  0  0  0
  -15.2420  -42.2448  -10.0333 C   0  0  0  0  0  0  0  0  0  0  0  0
  -15.6062  -43.5212  -10.4523 C   0  0  0  0  0  0  0  0  0  0  0  0
  -15.1708  -44.0320  -11.6557 C   0  0  0  0  0  0  0  0  0  0  0  0
  -14.3617  -43.2277  -12.4246 C   0  0  0  0  0  0  0  0  0  0  0  0
  -13.9986  -41.9767  -12.0254 C   0  0  0  0  0  0  0  0  0  0  0  0
  -16.4868  -44.3055   -9.5409 C   0  0  0  0  0  0  0  0  0  0  0  0
  -17.5696  -43.3588   -9.0513 C   0  0  0  0  0  0  0  0  0  0  0  0
  -15.6325  -44.8251   -8.4110 C   0  0  0  0  0  0  0  0  0  0  0  0
  -17.1192  -45.4842  -10.2509 C   0  0  0  0  0  0  0  0  0  0  0  0
  2  1  1  1
  2  3  1  0
  3  4  1  0
  4  5  1  0
  5  6  1  0
  6  7  1  0
  7  8  1  0
  8  9  1  0
  9 10  1  0
 10 11  1  0
 11 12  2  0
 11 13  2  0
 11 14  1  0
 14 15  1  0
 15 16  1  6
 15 17  1  0
 17 18  2  0
 17 19  1  0
 19 20  1  0
 20 21  1  1
 20 22  1  0
 22 23  1  6
 22 24  1  0
 24 25  1  0
 25 26  1  0
 26 27  1  0
 27 28  1  0
 26 29  1  0
 29 30  2  0
 30 31  1  0
 31 32  2  0
 32 33  1  0
 33 34  2  0
 31 35  1  0
 35 36  1  0
 35 37  1  0
 35 38  1  0
 21  2  1  0
 28 26  1  0
 34 29  1  0
M  END
$$$$
