
     RDKit          3D

 33 33  0  0  0  0  0  0  0  0999 V2000
  -11.9741  -41.4601  -14.8869 C   0  0  0  0  0  0  0  0  0  0  0  0
  -12.7421  -40.1823  -14.6522 C   0  0  0  0  0  0  0  0  0  0  0  0
  -12.5211  -39.7577  -13.2224 C   0  0  0  0  0  0  0  0  0  0  0  0
  -13.4141  -38.5987  -12.9042 C   0  0  0  0  0  0  0  0  0  0  0  0
  -13.1735  -38.1580  -11.5628 N   0  0  0  0  0  0  0  0  0  0  0  0
  -13.7946  -38.9116  -10.5116 C   0  0  0  0  0  0  0  0  0  0  0  0
  -13.2234  -39.8613   -9.9229 O   0  0  0  0  0  0  0  0  0  0  0  0
  -15.1765  -38.5179  -10.1331 C   0  0  2  0  0  0  0  0  0  0  0  0
  -15.0966  -37.1843   -9.4526 C   0  0  0  0  0  0  0  0  0  0  0  0
  -15.7277  -39.6068   -9.2351 C   0  0  0  0  0  0  0  0  0  0  0  0
  -16.9789  -39.0988   -8.5881 C   0  0  2  0  0  0  0  0  0  0  0  0
  -16.6453  -38.2037   -7.5734 O   0  0  0  0  0  0  0  0  0  0  0  0
  -17.8217  -40.1858   -7.9737 C   0  0  2  0  0  0  0  0  0  0  0  0
  -18.7627  -39.4801   -6.9906 C   0  0  0  0  0  0  0  0  0  0  0  0
  -19.7880  -38.6504   -7.6545 C   0  0  2  0  0  0  0  0  0  0  0  0
  -19.7388  -37.2112   -7.1237 C   0  0  0  0  0  0  0  0  0  0  0  0
  -21.2113  -39.1231   -7.4231 C   0  0  0  0  0  0  0  0  0  0  0  0
  -21.6493  -38.9747   -5.9999 C   0  0  0  0  0  0  0  0  0  0  0  0
  -22.1184  -40.2840   -5.4023 C   0  0  0  0  0  0  0  0  0  0  0  0
  -23.4319  -40.7397   -5.9605 C   0  0  0  0  0  0  0  0  0  0  0  0
  -23.7041  -42.1426   -5.4944 C   0  0  0  0  0  0  0  0  0  0  0  0
  -23.5955  -43.1626   -6.6068 C   0  0  0  0  0  0  0  0  0  0  0  0
  -22.1400  -43.3268   -6.9883 C   0  0  0  0  0  0  0  0  0  0  0  0
  -21.8905  -44.5537   -7.8198 C   0  0  0  0  0  0  0  0  0  0  0  0
  -20.1474  -44.7907   -7.9738 S   0  0  0  0  0  6  0  0  0  0  0  0
  -19.8863  -45.5818   -9.2192 O   0  0  0  0  0  0  0  0  0  0  0  0
  -19.6273  -45.5945   -6.7929 O   0  0  0  0  0  0  0  0  0  0  0  0
  -19.2851  -43.2210   -8.0511 C   0  0  0  0  0  0  0  0  0  0  0  0
  -17.8174  -43.4016   -7.7810 C   0  0  1  0  0  0  0  0  0  0  0  0
  -16.9985  -43.3929   -9.0786 C   0  0  0  0  0  0  0  0  0  0  0  0
  -17.2855  -42.3880   -6.8175 C   0  0  0  0  0  0  0  0  0  0  0  0
  -17.1063  -42.7790   -5.6308 O   0  0  0  0  0  0  0  0  0  0  0  0
  -16.9840  -41.0510   -7.1691 N   0  0  0  0  0  0  0  0  0  0  0  0
  1  2  1  0
  2  3  1  0
  3  4  1  0
  4  5  1  0
  5  6  1  0
  6  7  2  0
  6  8  1  0
  8  9  1  1
  8 10  1  0
 10 11  1  0
 11 12  1  1
 11 13  1  0
 13 14  1  1
 14 15  1  0
 15 16  1  1
 15 17  1  0
 17 18  1  0
 18 19  1  0
 19 20  1  0
 20 21  1  0
 21 22  1  0
 22 23  1  0
 23 24  1  0
 24 25  1  0
 25 26  2  0
 25 27  2  0
 25 28  1  0
 28 29  1  0
 29 30  1  6
 29 31  1  0
 31 32  2  0
 31 33  1  0
 33 13  1  0
M  END
$$$$
