
     RDKit          3D

 33 33  0  0  0  0  0  0  0  0999 V2000
  -13.0321  -34.4604  -11.8499 C   0  0  0  0  0  0  0  0  0  0  0  0
  -13.7210  -35.1412  -13.0073 C   0  0  0  0  0  0  0  0  0  0  0  0
  -13.4150  -36.6158  -12.9340 C   0  0  0  0  0  0  0  0  0  0  0  0
  -14.5729  -37.3335  -12.3124 C   0  0  0  0  0  0  0  0  0  0  0  0
  -14.2009  -37.8193  -11.0174 N   0  0  0  0  0  0  0  0  0  0  0  0
  -14.6200  -39.1491  -10.6788 C   0  0  0  0  0  0  0  0  0  0  0  0
  -15.3059  -39.8655  -11.4476 O   0  0  0  0  0  0  0  0  0  0  0  0
  -14.2022  -39.6636   -9.3488 C   0  0  2  0  0  0  0  0  0  0  0  0
  -12.8638  -40.3180   -9.5169 C   0  0  0  0  0  0  0  0  0  0  0  0
  -15.2745  -40.6251   -8.8780 C   0  0  0  0  0  0  0  0  0  0  0  0
  -16.5111  -39.8401   -8.5672 C   0  0  2  0  0  0  0  0  0  0  0  0
  -16.2014  -38.8265   -7.6622 O   0  0  0  0  0  0  0  0  0  0  0  0
  -17.6122  -40.6690   -7.9589 C   0  0  2  0  0  0  0  0  0  0  0  0
  -18.5164  -39.6809   -7.2133 C   0  0  0  0  0  0  0  0  0  0  0  0
  -19.2782  -38.7912   -8.1125 C   0  0  2  0  0  0  0  0  0  0  0  0
  -19.0242  -37.3209   -7.7529 C   0  0  0  0  0  0  0  0  0  0  0  0
  -20.7825  -38.9764   -8.0373 C   0  0  0  0  0  0  0  0  0  0  0  0
  -21.3553  -38.5550   -6.7206 C   0  0  0  0  0  0  0  0  0  0  0  0
  -22.1319  -39.6669   -6.0482 C   0  0  0  0  0  0  0  0  0  0  0  0
  -23.4295  -39.9664   -6.7346 C   0  0  0  0  0  0  0  0  0  0  0  0
  -24.0158  -41.2218   -6.1516 C   0  0  0  0  0  0  0  0  0  0  0  0
  -23.9661  -42.3927   -7.1087 C   0  0  0  0  0  0  0  0  0  0  0  0
  -22.5320  -42.8552   -7.2519 C   0  0  0  0  0  0  0  0  0  0  0  0
  -22.4182  -44.2121   -7.8881 C   0  0  0  0  0  0  0  0  0  0  0  0
  -20.7454  -44.7624   -7.7573 S   0  0  0  0  0  6  0  0  0  0  0  0
  -20.4877  -45.7551   -8.8496 O   0  0  0  0  0  0  0  0  0  0  0  0
  -20.5341  -45.4673   -6.4270 O   0  0  0  0  0  0  0  0  0  0  0  0
  -19.6001  -43.3899   -7.8919 C   0  0  0  0  0  0  0  0  0  0  0  0
  -18.2369  -43.7781   -7.3913 C   0  0  1  0  0  0  0  0  0  0  0  0
  -17.2787  -44.0933   -8.5475 C   0  0  0  0  0  0  0  0  0  0  0  0
  -17.6454  -42.7437   -6.4863 C   0  0  0  0  0  0  0  0  0  0  0  0
  -17.6894  -42.9871   -5.2485 O   0  0  0  0  0  0  0  0  0  0  0  0
  -17.0569  -41.5413   -6.9447 N   0  0  0  0  0  0  0  0  0  0  0  0
  1  2  1  0
  2  3  1  0
  3  4  1  0
  4  5  1  0
  5  6  1  0
  6  7  2  0
  6  8  1  0
  8  9  1  6
  8 10  1  0
 10 11  1  0
 11 12  1  1
 11 13  1  0
 13 14  1  1
 14 15  1  0
 15 16  1  1
 15 17  1  0
 17 18  1  0
 18 19  1  0
 19 20  1  0
 20 21  1  0
 21 22  1  0
 22 23  1  0
 23 24  1  0
 24 25  1  0
 25 26  2  0
 25 27  2  0
 25 28  1  0
 28 29  1  0
 29 30  1  6
 29 31  1  0
 31 32  2  0
 31 33  1  0
 33 13  1  0
M  END
$$$$
