
     RDKit          3D

 33 33  0  0  0  0  0  0  0  0999 V2000
  -13.5818  -34.5311  -12.1032 C   0  0  0  0  0  0  0  0  0  0  0  0
  -14.4115  -35.6411  -11.5055 C   0  0  0  0  0  0  0  0  0  0  0  0
  -14.0483  -36.9269  -12.2040 C   0  0  0  0  0  0  0  0  0  0  0  0
  -14.8662  -38.0473  -11.6403 C   0  0  0  0  0  0  0  0  0  0  0  0
  -14.0417  -38.8800  -10.8167 N   0  0  0  0  0  0  0  0  0  0  0  0
  -14.6843  -39.9827  -10.1609 C   0  0  0  0  0  0  0  0  0  0  0  0
  -15.7910  -40.4454  -10.5292 O   0  0  0  0  0  0  0  0  0  0  0  0
  -13.9740  -40.5748   -8.9977 C   0  0  2  0  0  0  0  0  0  0  0  0
  -13.5338  -41.9533   -9.3903 C   0  0  0  0  0  0  0  0  0  0  0  0
  -14.9388  -40.5735   -7.8294 C   0  0  0  0  0  0  0  0  0  0  0  0
  -16.1450  -39.7731   -8.2122 C   0  0  2  0  0  0  0  0  0  0  0  0
  -16.0551  -38.5014   -7.6493 O   0  0  0  0  0  0  0  0  0  0  0  0
  -17.4425  -40.3824   -7.7489 C   0  0  2  0  0  0  0  0  0  0  0  0
  -18.3824  -39.2038   -7.4712 C   0  0  0  0  0  0  0  0  0  0  0  0
  -18.8088  -38.4942   -8.6940 C   0  0  2  0  0  0  0  0  0  0  0  0
  -18.4865  -36.9976   -8.5849 C   0  0  0  0  0  0  0  0  0  0  0  0
  -20.2996  -38.5725   -8.9667 C   0  0  0  0  0  0  0  0  0  0  0  0
  -21.1161  -37.8375   -7.9506 C   0  0  0  0  0  0  0  0  0  0  0  0
  -22.1465  -38.7265   -7.2875 C   0  0  0  0  0  0  0  0  0  0  0  0
  -23.2711  -39.0968   -8.2056 C   0  0  0  0  0  0  0  0  0  0  0  0
  -24.1124  -40.1560   -7.5501 C   0  0  0  0  0  0  0  0  0  0  0  0
  -23.9680  -41.5111   -8.2077 C   0  0  0  0  0  0  0  0  0  0  0  0
  -22.6003  -42.0745   -7.8869 C   0  0  0  0  0  0  0  0  0  0  0  0
  -22.4899  -43.5430   -8.1874 C   0  0  0  0  0  0  0  0  0  0  0  0
  -20.9657  -44.1445   -7.5291 S   0  0  0  0  0  6  0  0  0  0  0  0
  -20.5690  -45.3678   -8.2979 O   0  0  0  0  0  0  0  0  0  0  0  0
  -21.1520  -44.5473   -6.0751 O   0  0  0  0  0  0  0  0  0  0  0  0
  -19.6771  -42.9033   -7.6422 C   0  0  0  0  0  0  0  0  0  0  0  0
  -18.5210  -43.2474   -6.7451 C   0  0  1  0  0  0  0  0  0  0  0  0
  -17.3584  -43.8653   -7.5330 C   0  0  0  0  0  0  0  0  0  0  0  0
  -18.0491  -42.0732   -5.9468 C   0  0  0  0  0  0  0  0  0  0  0  0
  -18.4094  -42.0328   -4.7378 O   0  0  0  0  0  0  0  0  0  0  0  0
  -17.2407  -41.0379   -6.4733 N   0  0  0  0  0  0  0  0  0  0  0  0
  1  2  1  0
  2  3  1  0
  3  4  1  0
  4  5  1  0
  5  6  1  0
  6  7  2  0
  6  8  1  0
  8  9  1  6
  8 10  1  0
 10 11  1  0
 11 12  1  1
 11 13  1  0
 13 14  1  1
 14 15  1  0
 15 16  1  1
 15 17  1  0
 17 18  1  0
 18 19  1  0
 19 20  1  0
 20 21  1  0
 21 22  1  0
 22 23  1  0
 23 24  1  0
 24 25  1  0
 25 26  2  0
 25 27  2  0
 25 28  1  0
 28 29  1  0
 29 30  1  6
 29 31  1  0
 31 32  2  0
 31 33  1  0
 33 13  1  0
M  END
$$$$
