
     RDKit          3D

 33 33  0  0  0  0  0  0  0  0999 V2000
  -10.1753  -38.4575  -11.9671 C   0  0  0  0  0  0  0  0  0  0  0  0
  -10.7045  -39.2884  -13.1105 C   0  0  0  0  0  0  0  0  0  0  0  0
  -11.9776  -38.6495  -13.6050 C   0  0  0  0  0  0  0  0  0  0  0  0
  -13.1434  -39.5135  -13.2358 C   0  0  0  0  0  0  0  0  0  0  0  0
  -13.9761  -38.8249  -12.2957 N   0  0  0  0  0  0  0  0  0  0  0  0
  -14.1496  -39.4401  -11.0111 C   0  0  0  0  0  0  0  0  0  0  0  0
  -13.8888  -40.6478  -10.7914 O   0  0  0  0  0  0  0  0  0  0  0  0
  -14.6633  -38.5737   -9.9187 C   0  0  2  0  0  0  0  0  0  0  0  0
  -13.5031  -37.7945   -9.3757 C   0  0  0  0  0  0  0  0  0  0  0  0
  -15.3021  -39.4789   -8.8851 C   0  0  0  0  0  0  0  0  0  0  0  0
  -16.7823  -39.2543   -8.9089 C   0  0  2  0  0  0  0  0  0  0  0  0
  -17.0905  -38.1173   -8.1643 O   0  0  0  0  0  0  0  0  0  0  0  0
  -17.5733  -40.4001   -8.3337 C   0  0  2  0  0  0  0  0  0  0  0  0
  -18.5784  -39.7690   -7.3635 C   0  0  0  0  0  0  0  0  0  0  0  0
  -19.6350  -38.9899   -8.0396 C   0  0  2  0  0  0  0  0  0  0  0  0
  -19.6848  -37.5600   -7.4844 C   0  0  0  0  0  0  0  0  0  0  0  0
  -21.0328  -39.5502   -7.8521 C   0  0  0  0  0  0  0  0  0  0  0  0
  -21.5133  -39.4533   -6.4382 C   0  0  0  0  0  0  0  0  0  0  0  0
  -21.9177  -40.7986   -5.8740 C   0  0  0  0  0  0  0  0  0  0  0  0
  -23.1878  -41.3214   -6.4727 C   0  0  0  0  0  0  0  0  0  0  0  0
  -23.3869  -42.7460   -6.0365 C   0  0  0  0  0  0  0  0  0  0  0  0
  -23.1905  -43.7379   -7.1621 C   0  0  0  0  0  0  0  0  0  0  0  0
  -21.7190  -43.8087   -7.5093 C   0  0  0  0  0  0  0  0  0  0  0  0
  -21.3765  -45.0037   -8.3540 C   0  0  0  0  0  0  0  0  0  0  0  0
  -19.6191  -45.1341   -8.4676 S   0  0  0  0  0  6  0  0  0  0  0  0
  -19.2810  -45.8861   -9.7187 O   0  0  0  0  0  0  0  0  0  0  0  0
  -19.0807  -45.9264   -7.2871 O   0  0  0  0  0  0  0  0  0  0  0  0
  -18.8504  -43.5149   -8.4976 C   0  0  0  0  0  0  0  0  0  0  0  0
  -17.3816  -43.6129   -8.1934 C   0  0  1  0  0  0  0  0  0  0  0  0
  -16.5334  -43.5326   -9.4695 C   0  0  0  0  0  0  0  0  0  0  0  0
  -16.9348  -42.5868   -7.2003 C   0  0  0  0  0  0  0  0  0  0  0  0
  -16.7614  -42.9875   -6.0160 O   0  0  0  0  0  0  0  0  0  0  0  0
  -16.7052  -41.2282   -7.5224 N   0  0  0  0  0  0  0  0  0  0  0  0
  1  2  1  0
  2  3  1  0
  3  4  1  0
  4  5  1  0
  5  6  1  0
  6  7  2  0
  6  8  1  0
  8  9  1  1
  8 10  1  0
 10 11  1  0
 11 12  1  1
 11 13  1  0
 13 14  1  1
 14 15  1  0
 15 16  1  1
 15 17  1  0
 17 18  1  0
 18 19  1  0
 19 20  1  0
 20 21  1  0
 21 22  1  0
 22 23  1  0
 23 24  1  0
 24 25  1  0
 25 26  2  0
 25 27  2  0
 25 28  1  0
 28 29  1  0
 29 30  1  6
 29 31  1  0
 31 32  2  0
 31 33  1  0
 33 13  1  0
M  END
$$$$
