
     RDKit          3D

 33 33  0  0  0  0  0  0  0  0999 V2000
  -21.0664  -44.1467   -5.4894 C   0  0  0  0  0  0  0  0  0  0  0  0
  -21.4971  -43.1279   -4.4627 C   0  0  0  0  0  0  0  0  0  0  0  0
  -21.5912  -41.7860   -5.1438 C   0  0  0  0  0  0  0  0  0  0  0  0
  -20.3472  -40.9998   -4.8674 C   0  0  0  0  0  0  0  0  0  0  0  0
  -20.2487  -39.9110   -5.7928 N   0  0  0  0  0  0  0  0  0  0  0  0
  -19.1482  -39.9399   -6.7131 C   0  0  0  0  0  0  0  0  0  0  0  0
  -18.7449  -40.9936   -7.2625 O   0  0  0  0  0  0  0  0  0  0  0  0
  -18.4836  -38.6426   -7.0015 C   0  0  2  0  0  0  0  0  0  0  0  0
  -19.5449  -37.5836   -7.0151 C   0  0  0  0  0  0  0  0  0  0  0  0
  -17.7732  -38.7837   -8.3324 C   0  0  0  0  0  0  0  0  0  0  0  0
  -16.3716  -39.2429   -8.0748 C   0  0  2  0  0  0  0  0  0  0  0  0
  -15.5872  -38.1522   -7.7043 O   0  0  0  0  0  0  0  0  0  0  0  0
  -15.7193  -39.8834   -9.2722 C   0  0  2  0  0  0  0  0  0  0  0  0
  -15.3132  -38.7287  -10.1949 C   0  0  0  0  0  0  0  0  0  0  0  0
  -14.2072  -37.9110   -9.6576 C   0  0  2  0  0  0  0  0  0  0  0  0
  -14.6128  -36.4319   -9.6011 C   0  0  0  0  0  0  0  0  0  0  0  0
  -12.9416  -37.9562  -10.4937 C   0  0  0  0  0  0  0  0  0  0  0  0
  -13.1061  -37.3095  -11.8331 C   0  0  0  0  0  0  0  0  0  0  0  0
  -12.7657  -38.2478  -12.9713 C   0  0  0  0  0  0  0  0  0  0  0  0
  -11.2975  -38.5287  -13.0731 C   0  0  0  0  0  0  0  0  0  0  0  0
  -11.0767  -39.6370  -14.0642 C   0  0  0  0  0  0  0  0  0  0  0  0
  -10.6363  -40.9292  -13.4117 C   0  0  0  0  0  0  0  0  0  0  0  0
  -11.8045  -41.5268  -12.6573 C   0  0  0  0  0  0  0  0  0  0  0  0
  -11.5794  -42.9634  -12.2776 C   0  0  0  0  0  0  0  0  0  0  0  0
  -13.0911  -43.6298  -11.6539 S   0  0  0  0  0  6  0  0  0  0  0  0
  -12.7639  -44.7824  -10.7543 O   0  0  0  0  0  0  0  0  0  0  0  0
  -13.9368  -44.1587  -12.8011 O   0  0  0  0  0  0  0  0  0  0  0  0
  -14.0209  -42.3909  -10.7513 C   0  0  0  0  0  0  0  0  0  0  0  0
  -15.4502  -42.8198  -10.5699 C   0  0  1  0  0  0  0  0  0  0  0  0
  -15.7001  -43.3722   -9.1604 C   0  0  0  0  0  0  0  0  0  0  0  0
  -16.4191  -41.7238  -10.8839 C   0  0  0  0  0  0  0  0  0  0  0  0
  -16.9993  -41.7887  -12.0031 O   0  0  0  0  0  0  0  0  0  0  0  0
  -16.7039  -40.6506  -10.0067 N   0  0  0  0  0  0  0  0  0  0  0  0
  1  2  1  0
  2  3  1  0
  3  4  1  0
  4  5  1  0
  5  6  1  0
  6  7  2  0
  6  8  1  0
  8  9  1  6
  8 10  1  0
 10 11  1  0
 11 12  1  6
 11 13  1  0
 13 14  1  6
 14 15  1  0
 15 16  1  6
 15 17  1  0
 17 18  1  0
 18 19  1  0
 19 20  1  0
 20 21  1  0
 21 22  1  0
 22 23  1  0
 23 24  1  0
 24 25  1  0
 25 26  2  0
 25 27  2  0
 25 28  1  0
 28 29  1  0
 29 30  1  1
 29 31  1  0
 31 32  2  0
 31 33  1  0
 33 13  1  0
M  END
$$$$
