
     RDKit          3D

 33 33  0  0  0  0  0  0  0  0999 V2000
  -12.4872  -39.4370  -15.5251 C   0  0  0  0  0  0  0  0  0  0  0  0
  -13.4970  -40.2707  -14.7748 C   0  0  0  0  0  0  0  0  0  0  0  0
  -13.9613  -39.4806  -13.5775 C   0  0  0  0  0  0  0  0  0  0  0  0
  -12.8833  -39.4732  -12.5383 C   0  0  0  0  0  0  0  0  0  0  0  0
  -13.3047  -38.6964  -11.4112 N   0  0  0  0  0  0  0  0  0  0  0  0
  -14.0061  -39.3919  -10.3703 C   0  0  0  0  0  0  0  0  0  0  0  0
  -14.4304  -40.5658  -10.4992 O   0  0  0  0  0  0  0  0  0  0  0  0
  -14.2189  -38.6534   -9.0986 C   0  0  2  0  0  0  0  0  0  0  0  0
  -12.8835  -38.1509   -8.6382 C   0  0  0  0  0  0  0  0  0  0  0  0
  -14.8578  -39.6155   -8.1177 C   0  0  0  0  0  0  0  0  0  0  0  0
  -16.2821  -39.2031   -7.9093 C   0  0  2  0  0  0  0  0  0  0  0  0
  -16.3684  -38.3890   -6.7814 O   0  0  0  0  0  0  0  0  0  0  0  0
  -17.2198  -40.3638   -7.7025 C   0  0  2  0  0  0  0  0  0  0  0  0
  -18.5002  -39.7663   -7.1081 C   0  0  0  0  0  0  0  0  0  0  0  0
  -19.2602  -38.9391   -8.0666 C   0  0  2  0  0  0  0  0  0  0  0  0
  -19.5031  -37.5376   -7.4900 C   0  0  0  0  0  0  0  0  0  0  0  0
  -20.6349  -39.4869   -8.4025 C   0  0  0  0  0  0  0  0  0  0  0  0
  -21.5750  -39.4526   -7.2387 C   0  0  0  0  0  0  0  0  0  0  0  0
  -22.1455  -40.8178   -6.9188 C   0  0  0  0  0  0  0  0  0  0  0  0
  -23.1287  -41.2914   -7.9453 C   0  0  0  0  0  0  0  0  0  0  0  0
  -23.4621  -42.7326   -7.6785 C   0  0  0  0  0  0  0  0  0  0  0  0
  -22.8857  -43.6707   -8.7165 C   0  0  0  0  0  0  0  0  0  0  0  0
  -21.3847  -43.7463   -8.5371 C   0  0  0  0  0  0  0  0  0  0  0  0
  -20.7677  -44.9033   -9.2717 C   0  0  0  0  0  0  0  0  0  0  0  0
  -19.0790  -45.0543   -8.7778 S   0  0  0  0  0  6  0  0  0  0  0  0
  -18.3270  -45.7488   -9.8719 O   0  0  0  0  0  0  0  0  0  0  0  0
  -18.9797  -45.9118   -7.5263 O   0  0  0  0  0  0  0  0  0  0  0  0
  -18.3523  -43.4472   -8.4571 C   0  0  0  0  0  0  0  0  0  0  0  0
  -17.0789  -43.5822   -7.6697 C   0  0  1  0  0  0  0  0  0  0  0  0
  -15.8420  -43.4518   -8.5684 C   0  0  0  0  0  0  0  0  0  0  0  0
  -17.0060  -42.6130   -6.5322 C   0  0  0  0  0  0  0  0  0  0  0  0
  -17.2517  -43.0740   -5.3831 O   0  0  0  0  0  0  0  0  0  0  0  0
  -16.6833  -41.2437   -6.6849 N   0  0  0  0  0  0  0  0  0  0  0  0
  1  2  1  0
  2  3  1  0
  3  4  1  0
  4  5  1  0
  5  6  1  0
  6  7  2  0
  6  8  1  0
  8  9  1  1
  8 10  1  0
 10 11  1  0
 11 12  1  1
 11 13  1  0
 13 14  1  1
 14 15  1  0
 15 16  1  1
 15 17  1  0
 17 18  1  0
 18 19  1  0
 19 20  1  0
 20 21  1  0
 21 22  1  0
 22 23  1  0
 23 24  1  0
 24 25  1  0
 25 26  2  0
 25 27  2  0
 25 28  1  0
 28 29  1  0
 29 30  1  6
 29 31  1  0
 31 32  2  0
 31 33  1  0
 33 13  1  0
M  END
$$$$
