
     RDKit          3D

 33 33  0  0  0  0  0  0  0  0999 V2000
  -13.3995  -37.2934  -14.6806 C   0  0  0  0  0  0  0  0  0  0  0  0
  -13.5376  -36.7234  -13.2901 C   0  0  0  0  0  0  0  0  0  0  0  0
  -14.4053  -37.6568  -12.4843 C   0  0  0  0  0  0  0  0  0  0  0  0
  -14.6178  -37.0826  -11.1178 C   0  0  0  0  0  0  0  0  0  0  0  0
  -13.6933  -37.6733  -10.1969 N   0  0  0  0  0  0  0  0  0  0  0  0
  -13.9590  -39.0225   -9.7873 C   0  0  0  0  0  0  0  0  0  0  0  0
  -14.2433  -39.9385  -10.5965 O   0  0  0  0  0  0  0  0  0  0  0  0
  -13.8838  -39.3061   -8.3306 C   0  0  2  0  0  0  0  0  0  0  0  0
  -12.5110  -39.8360   -8.0431 C   0  0  0  0  0  0  0  0  0  0  0  0
  -14.9803  -40.3001   -8.0056 C   0  0  0  0  0  0  0  0  0  0  0  0
  -16.3005  -39.6030   -8.1201 C   0  0  2  0  0  0  0  0  0  0  0  0
  -16.4141  -38.6558   -7.1041 O   0  0  0  0  0  0  0  0  0  0  0  0
  -17.4819  -40.5310   -8.0078 C   0  0  2  0  0  0  0  0  0  0  0  0
  -18.5258  -39.7801   -7.1734 C   0  0  0  0  0  0  0  0  0  0  0  0
  -19.1209  -38.6276   -7.8793 C   0  0  2  0  0  0  0  0  0  0  0  0
  -18.9630  -37.3488   -7.0455 C   0  0  0  0  0  0  0  0  0  0  0  0
  -20.6094  -38.7638   -8.1410 C   0  0  0  0  0  0  0  0  0  0  0  0
  -21.4250  -38.7401   -6.8866 C   0  0  0  0  0  0  0  0  0  0  0  0
  -22.2950  -39.9705   -6.7420 C   0  0  0  0  0  0  0  0  0  0  0  0
  -23.4364  -39.9920   -7.7123 C   0  0  0  0  0  0  0  0  0  0  0  0
  -24.1003  -41.3396   -7.6605 C   0  0  0  0  0  0  0  0  0  0  0  0
  -23.8532  -42.1642   -8.9049 C   0  0  0  0  0  0  0  0  0  0  0  0
  -22.4102  -42.6207   -8.9185 C   0  0  0  0  0  0  0  0  0  0  0  0
  -22.1570  -43.7228   -9.9086 C   0  0  0  0  0  0  0  0  0  0  0  0
  -20.5292  -44.3563   -9.6495 S   0  0  0  0  0  6  0  0  0  0  0  0
  -20.0555  -44.9788  -10.9275 O   0  0  0  0  0  0  0  0  0  0  0  0
  -20.5585  -45.4411   -8.5849 O   0  0  0  0  0  0  0  0  0  0  0  0
  -19.4019  -43.0572   -9.1443 C   0  0  0  0  0  0  0  0  0  0  0  0
  -18.1499  -43.6362   -8.5468 C   0  0  1  0  0  0  0  0  0  0  0  0
  -16.9875  -43.6240   -9.5482 C   0  0  0  0  0  0  0  0  0  0  0  0
  -17.7552  -42.9524   -7.2757 C   0  0  0  0  0  0  0  0  0  0  0  0
  -18.0257  -43.5593   -6.2025 O   0  0  0  0  0  0  0  0  0  0  0  0
  -17.1115  -41.6932   -7.2271 N   0  0  0  0  0  0  0  0  0  0  0  0
  1  2  1  0
  2  3  1  0
  3  4  1  0
  4  5  1  0
  5  6  1  0
  6  7  2  0
  6  8  1  0
  8  9  1  6
  8 10  1  0
 10 11  1  0
 11 12  1  1
 11 13  1  0
 13 14  1  1
 14 15  1  0
 15 16  1  1
 15 17  1  0
 17 18  1  0
 18 19  1  0
 19 20  1  0
 20 21  1  0
 21 22  1  0
 22 23  1  0
 23 24  1  0
 24 25  1  0
 25 26  2  0
 25 27  2  0
 25 28  1  0
 28 29  1  0
 29 30  1  6
 29 31  1  0
 31 32  2  0
 31 33  1  0
 33 13  1  0
M  END
$$$$
