
     RDKit          3D

 33 33  0  0  0  0  0  0  0  0999 V2000
  -15.7933  -34.2060  -12.7970 C   0  0  0  0  0  0  0  0  0  0  0  0
  -16.1986  -35.6342  -12.5254 C   0  0  0  0  0  0  0  0  0  0  0  0
  -15.4348  -36.1174  -11.3186 C   0  0  0  0  0  0  0  0  0  0  0  0
  -15.0400  -37.5477  -11.5201 C   0  0  0  0  0  0  0  0  0  0  0  0
  -14.3149  -38.0140  -10.3763 N   0  0  0  0  0  0  0  0  0  0  0  0
  -14.9658  -38.9895   -9.5495 C   0  0  0  0  0  0  0  0  0  0  0  0
  -15.7327  -39.8707  -10.0078 O   0  0  0  0  0  0  0  0  0  0  0  0
  -14.6929  -38.9186   -8.0906 C   0  0  2  0  0  0  0  0  0  0  0  0
  -13.2380  -39.2186   -7.8873 C   0  0  0  0  0  0  0  0  0  0  0  0
  -15.6031  -39.9210   -7.4104 C   0  0  0  0  0  0  0  0  0  0  0  0
  -16.9181  -39.9285   -8.1263 C   0  0  2  0  0  0  0  0  0  0  0  0
  -17.4912  -38.6601   -8.0562 O   0  0  0  0  0  0  0  0  0  0  0  0
  -17.9100  -40.9056   -7.5510 C   0  0  2  0  0  0  0  0  0  0  0  0
  -18.7687  -40.1007   -6.5690 C   0  0  0  0  0  0  0  0  0  0  0  0
  -19.6612  -39.1289   -7.2321 C   0  0  2  0  0  0  0  0  0  0  0  0
  -19.4323  -37.7198   -6.6685 C   0  0  0  0  0  0  0  0  0  0  0  0
  -21.1391  -39.4125   -7.0362 C   0  0  0  0  0  0  0  0  0  0  0  0
  -21.5823  -39.2354   -5.6179 C   0  0  0  0  0  0  0  0  0  0  0  0
  -22.2329  -40.4822   -5.0579 C   0  0  0  0  0  0  0  0  0  0  0  0
  -23.5837  -40.7480   -5.6490 C   0  0  0  0  0  0  0  0  0  0  0  0
  -24.0490  -42.1111   -5.2190 C   0  0  0  0  0  0  0  0  0  0  0  0
  -24.0541  -43.1142   -6.3518 C   0  0  0  0  0  0  0  0  0  0  0  0
  -22.6259  -43.4631   -6.7115 C   0  0  0  0  0  0  0  0  0  0  0  0
  -22.5245  -44.6956   -7.5657 C   0  0  0  0  0  0  0  0  0  0  0  0
  -20.8255  -45.1593   -7.6945 S   0  0  0  0  0  6  0  0  0  0  0  0
  -20.6464  -45.9533   -8.9525 O   0  0  0  0  0  0  0  0  0  0  0  0
  -20.4406  -46.0484   -6.5229 O   0  0  0  0  0  0  0  0  0  0  0  0
  -19.7611  -43.7170   -7.7217 C   0  0  0  0  0  0  0  0  0  0  0  0
  -18.3361  -44.0967   -7.4302 C   0  0  1  0  0  0  0  0  0  0  0  0
  -17.4973  -44.1712   -8.7128 C   0  0  0  0  0  0  0  0  0  0  0  0
  -17.6941  -43.1821   -6.4352 C   0  0  0  0  0  0  0  0  0  0  0  0
  -17.5924  -43.6169   -5.2545 O   0  0  0  0  0  0  0  0  0  0  0  0
  -17.2108  -41.8904   -6.7515 N   0  0  0  0  0  0  0  0  0  0  0  0
  1  2  1  0
  2  3  1  0
  3  4  1  0
  4  5  1  0
  5  6  1  0
  6  7  2  0
  6  8  1  0
  8  9  1  6
  8 10  1  0
 10 11  1  0
 11 12  1  1
 11 13  1  0
 13 14  1  1
 14 15  1  0
 15 16  1  1
 15 17  1  0
 17 18  1  0
 18 19  1  0
 19 20  1  0
 20 21  1  0
 21 22  1  0
 22 23  1  0
 23 24  1  0
 24 25  1  0
 25 26  2  0
 25 27  2  0
 25 28  1  0
 28 29  1  0
 29 30  1  6
 29 31  1  0
 31 32  2  0
 31 33  1  0
 33 13  1  0
M  END
$$$$
