
     RDKit          3D

 33 33  0  0  0  0  0  0  0  0999 V2000
  -12.4423  -34.1784  -13.1825 C   0  0  0  0  0  0  0  0  0  0  0  0
  -12.7835  -35.6475  -13.1272 C   0  0  0  0  0  0  0  0  0  0  0  0
  -13.0948  -36.0035  -11.6955 C   0  0  0  0  0  0  0  0  0  0  0  0
  -13.9402  -37.2390  -11.6629 C   0  0  0  0  0  0  0  0  0  0  0  0
  -13.7908  -37.8928  -10.3974 N   0  0  0  0  0  0  0  0  0  0  0  0
  -14.5297  -39.1076  -10.2041 C   0  0  0  0  0  0  0  0  0  0  0  0
  -15.2343  -39.6286  -11.1023 O   0  0  0  0  0  0  0  0  0  0  0  0
  -14.4290  -39.7457   -8.8660 C   0  0  2  0  0  0  0  0  0  0  0  0
  -13.0616  -40.3504   -8.7548 C   0  0  0  0  0  0  0  0  0  0  0  0
  -15.5385  -40.7731   -8.7696 C   0  0  0  0  0  0  0  0  0  0  0  0
  -16.7964  -40.0744   -8.3554 C   0  0  2  0  0  0  0  0  0  0  0  0
  -16.5010  -39.1333   -7.3708 O   0  0  0  0  0  0  0  0  0  0  0  0
  -17.8428  -41.0021   -7.7953 C   0  0  2  0  0  0  0  0  0  0  0  0
  -18.7831  -40.1201   -6.9662 C   0  0  0  0  0  0  0  0  0  0  0  0
  -19.6051  -39.2078   -7.7864 C   0  0  2  0  0  0  0  0  0  0  0  0
  -19.4203  -37.7566   -7.3221 C   0  0  0  0  0  0  0  0  0  0  0  0
  -21.0964  -39.4764   -7.7046 C   0  0  0  0  0  0  0  0  0  0  0  0
  -21.6668  -39.1834   -6.3525 C   0  0  0  0  0  0  0  0  0  0  0  0
  -22.3737  -40.3807   -5.7539 C   0  0  0  0  0  0  0  0  0  0  0  0
  -23.6661  -40.6964   -6.4429 C   0  0  0  0  0  0  0  0  0  0  0  0
  -24.1772  -42.0201   -5.9467 C   0  0  0  0  0  0  0  0  0  0  0  0
  -24.0844  -43.1134   -6.9887 C   0  0  0  0  0  0  0  0  0  0  0  0
  -22.6313  -43.4886   -7.1854 C   0  0  0  0  0  0  0  0  0  0  0  0
  -22.4595  -44.7872   -7.9222 C   0  0  0  0  0  0  0  0  0  0  0  0
  -20.7587  -45.2575   -7.8554 S   0  0  0  0  0  6  0  0  0  0  0  0
  -20.4698  -46.1524   -9.0219 O   0  0  0  0  0  0  0  0  0  0  0  0
  -20.4884  -46.0461   -6.5841 O   0  0  0  0  0  0  0  0  0  0  0  0
  -19.6876  -43.8208   -7.9033 C   0  0  0  0  0  0  0  0  0  0  0  0
  -18.2977  -44.1729   -7.4517 C   0  0  1  0  0  0  0  0  0  0  0  0
  -17.3451  -44.3519   -8.6411 C   0  0  0  0  0  0  0  0  0  0  0  0
  -17.7442  -43.1783   -6.4805 C   0  0  0  0  0  0  0  0  0  0  0  0
  -17.7540  -43.5139   -5.2637 O   0  0  0  0  0  0  0  0  0  0  0  0
  -17.2260  -41.9163   -6.8565 N   0  0  0  0  0  0  0  0  0  0  0  0
  1  2  1  0
  2  3  1  0
  3  4  1  0
  4  5  1  0
  5  6  1  0
  6  7  2  0
  6  8  1  0
  8  9  1  6
  8 10  1  0
 10 11  1  0
 11 12  1  1
 11 13  1  0
 13 14  1  1
 14 15  1  0
 15 16  1  1
 15 17  1  0
 17 18  1  0
 18 19  1  0
 19 20  1  0
 20 21  1  0
 21 22  1  0
 22 23  1  0
 23 24  1  0
 24 25  1  0
 25 26  2  0
 25 27  2  0
 25 28  1  0
 28 29  1  0
 29 30  1  6
 29 31  1  0
 31 32  2  0
 31 33  1  0
 33 13  1  0
M  END
$$$$
