
     RDKit          3D

 33 33  0  0  0  0  0  0  0  0999 V2000
  -13.0162  -34.8614  -13.4900 C   0  0  0  0  0  0  0  0  0  0  0  0
  -12.8060  -35.2557  -12.0485 C   0  0  0  0  0  0  0  0  0  0  0  0
  -11.8694  -36.4370  -12.0168 C   0  0  0  0  0  0  0  0  0  0  0  0
  -12.6674  -37.7030  -11.9673 C   0  0  0  0  0  0  0  0  0  0  0  0
  -13.2075  -37.8820  -10.6529 N   0  0  0  0  0  0  0  0  0  0  0  0
  -14.2635  -38.8432  -10.5112 C   0  0  0  0  0  0  0  0  0  0  0  0
  -14.9551  -39.2453  -11.4780 O   0  0  0  0  0  0  0  0  0  0  0  0
  -14.5172  -39.3608   -9.1417 C   0  0  2  0  0  0  0  0  0  0  0  0
  -13.2139  -39.8680   -8.6011 C   0  0  0  0  0  0  0  0  0  0  0  0
  -15.5708  -40.4438   -9.2549 C   0  0  0  0  0  0  0  0  0  0  0  0
  -16.9136  -39.8247   -9.0186 C   0  0  2  0  0  0  0  0  0  0  0  0
  -16.7580  -38.6405   -8.3006 O   0  0  0  0  0  0  0  0  0  0  0  0
  -17.8532  -40.7068   -8.2387 C   0  0  2  0  0  0  0  0  0  0  0  0
  -18.6014  -39.7750   -7.2785 C   0  0  0  0  0  0  0  0  0  0  0  0
  -19.5454  -38.8670   -7.9603 C   0  0  2  0  0  0  0  0  0  0  0  0
  -19.2467  -37.4076   -7.5908 C   0  0  0  0  0  0  0  0  0  0  0  0
  -20.9992  -39.0935   -7.5890 C   0  0  0  0  0  0  0  0  0  0  0  0
  -21.2969  -38.7440   -6.1647 C   0  0  0  0  0  0  0  0  0  0  0  0
  -21.9014  -39.9032   -5.4016 C   0  0  0  0  0  0  0  0  0  0  0  0
  -23.3072  -40.2056   -5.8225 C   0  0  0  0  0  0  0  0  0  0  0  0
  -23.7414  -41.4994   -5.1925 C   0  0  0  0  0  0  0  0  0  0  0  0
  -23.8699  -42.6264   -6.1940 C   0  0  0  0  0  0  0  0  0  0  0  0
  -22.4884  -43.0457   -6.6483 C   0  0  0  0  0  0  0  0  0  0  0  0
  -22.4855  -44.3706   -7.3580 C   0  0  0  0  0  0  0  0  0  0  0  0
  -20.8128  -44.8834   -7.5971 S   0  0  0  0  0  6  0  0  0  0  0  0
  -20.7683  -45.8211   -8.7648 O   0  0  0  0  0  0  0  0  0  0  0  0
  -20.3223  -45.6393   -6.3727 O   0  0  0  0  0  0  0  0  0  0  0  0
  -19.7415  -43.4776   -7.8970 C   0  0  0  0  0  0  0  0  0  0  0  0
  -18.2985  -43.8523   -7.7038 C   0  0  1  0  0  0  0  0  0  0  0  0
  -17.5925  -44.0930   -9.0446 C   0  0  0  0  0  0  0  0  0  0  0  0
  -17.5510  -42.8433   -6.8903 C   0  0  0  0  0  0  0  0  0  0  0  0
  -17.3367  -43.1409   -5.6825 O   0  0  0  0  0  0  0  0  0  0  0  0
  -17.0882  -41.6076   -7.4016 N   0  0  0  0  0  0  0  0  0  0  0  0
  1  2  1  0
  2  3  1  0
  3  4  1  0
  4  5  1  0
  5  6  1  0
  6  7  2  0
  6  8  1  0
  8  9  1  6
  8 10  1  0
 10 11  1  0
 11 12  1  1
 11 13  1  0
 13 14  1  1
 14 15  1  0
 15 16  1  1
 15 17  1  0
 17 18  1  0
 18 19  1  0
 19 20  1  0
 20 21  1  0
 21 22  1  0
 22 23  1  0
 23 24  1  0
 24 25  1  0
 25 26  2  0
 25 27  2  0
 25 28  1  0
 28 29  1  0
 29 30  1  6
 29 31  1  0
 31 32  2  0
 31 33  1  0
 33 13  1  0
M  END
$$$$
