
     RDKit          3D

 33 33  0  0  0  0  0  0  0  0999 V2000
  -14.8262  -37.2408  -14.9377 C   0  0  0  0  0  0  0  0  0  0  0  0
  -15.5070  -37.5541  -13.6277 C   0  0  0  0  0  0  0  0  0  0  0  0
  -15.0018  -36.5819  -12.5919 C   0  0  0  0  0  0  0  0  0  0  0  0
  -13.9399  -37.2412  -11.7673 C   0  0  0  0  0  0  0  0  0  0  0  0
  -14.4657  -37.5698  -10.4762 N   0  0  0  0  0  0  0  0  0  0  0  0
  -14.5537  -38.9637  -10.1476 C   0  0  0  0  0  0  0  0  0  0  0  0
  -15.0017  -39.8257  -10.9420 O   0  0  0  0  0  0  0  0  0  0  0  0
  -14.0829  -39.3631   -8.7960 C   0  0  2  0  0  0  0  0  0  0  0  0
  -12.7014  -39.9261   -8.9462 C   0  0  0  0  0  0  0  0  0  0  0  0
  -15.0747  -40.3702   -8.2502 C   0  0  0  0  0  0  0  0  0  0  0  0
  -16.4196  -39.7164   -8.1731 C   0  0  2  0  0  0  0  0  0  0  0  0
  -16.3422  -38.5926   -7.3526 O   0  0  0  0  0  0  0  0  0  0  0  0
  -17.4925  -40.6130   -7.6124 C   0  0  2  0  0  0  0  0  0  0  0  0
  -18.3576  -39.7200   -6.7158 C   0  0  0  0  0  0  0  0  0  0  0  0
  -19.1591  -38.7349   -7.4693 C   0  0  2  0  0  0  0  0  0  0  0  0
  -18.8845  -37.3151   -6.9555 C   0  0  0  0  0  0  0  0  0  0  0  0
  -20.6586  -38.9321   -7.3443 C   0  0  0  0  0  0  0  0  0  0  0  0
  -21.1668  -38.6667   -5.9621 C   0  0  0  0  0  0  0  0  0  0  0  0
  -21.9133  -39.8508   -5.3858 C   0  0  0  0  0  0  0  0  0  0  0  0
  -23.2430  -40.0732   -6.0394 C   0  0  0  0  0  0  0  0  0  0  0  0
  -23.8040  -41.3890   -5.5775 C   0  0  0  0  0  0  0  0  0  0  0  0
  -23.8030  -42.4419   -6.6642 C   0  0  0  0  0  0  0  0  0  0  0  0
  -22.3786  -42.8806   -6.9279 C   0  0  0  0  0  0  0  0  0  0  0  0
  -22.2988  -44.1549   -7.7208 C   0  0  0  0  0  0  0  0  0  0  0  0
  -20.6230  -44.7117   -7.7340 S   0  0  0  0  0  6  0  0  0  0  0  0
  -20.4203  -45.5713   -8.9444 O   0  0  0  0  0  0  0  0  0  0  0  0
  -20.3503  -45.5643   -6.5053 O   0  0  0  0  0  0  0  0  0  0  0  0
  -19.4819  -43.3294   -7.7642 C   0  0  0  0  0  0  0  0  0  0  0  0
  -18.0973  -43.7686   -7.3772 C   0  0  1  0  0  0  0  0  0  0  0  0
  -17.1963  -43.9460   -8.6064 C   0  0  0  0  0  0  0  0  0  0  0  0
  -17.4608  -42.8435   -6.3884 C   0  0  0  0  0  0  0  0  0  0  0  0
  -17.4463  -43.2279   -5.1862 O   0  0  0  0  0  0  0  0  0  0  0  0
  -16.8918  -41.5946   -6.7330 N   0  0  0  0  0  0  0  0  0  0  0  0
  1  2  1  0
  2  3  1  0
  3  4  1  0
  4  5  1  0
  5  6  1  0
  6  7  2  0
  6  8  1  0
  8  9  1  6
  8 10  1  0
 10 11  1  0
 11 12  1  1
 11 13  1  0
 13 14  1  1
 14 15  1  0
 15 16  1  1
 15 17  1  0
 17 18  1  0
 18 19  1  0
 19 20  1  0
 20 21  1  0
 21 22  1  0
 22 23  1  0
 23 24  1  0
 24 25  1  0
 25 26  2  0
 25 27  2  0
 25 28  1  0
 28 29  1  0
 29 30  1  6
 29 31  1  0
 31 32  2  0
 31 33  1  0
 33 13  1  0
M  END
$$$$
