
     RDKit          3D

 33 33  0  0  0  0  0  0  0  0999 V2000
  -10.5014  -42.2057  -11.0233 C   0  0  0  0  0  0  0  0  0  0  0  0
  -11.5930  -41.1788  -10.8464 C   0  0  0  0  0  0  0  0  0  0  0  0
  -12.8668  -41.7439  -11.4223 C   0  0  0  0  0  0  0  0  0  0  0  0
  -13.5875  -40.6729  -12.1809 C   0  0  0  0  0  0  0  0  0  0  0  0
  -13.4377  -39.4188  -11.5054 N   0  0  0  0  0  0  0  0  0  0  0  0
  -14.1070  -39.2779  -10.2441 C   0  0  0  0  0  0  0  0  0  0  0  0
  -13.6993  -39.8232   -9.1900 O   0  0  0  0  0  0  0  0  0  0  0  0
  -15.3342  -38.4402  -10.2282 C   0  0  2  0  0  0  0  0  0  0  0  0
  -14.9078  -37.0101  -10.3722 C   0  0  0  0  0  0  0  0  0  0  0  0
  -16.0522  -38.7136   -8.9222 C   0  0  0  0  0  0  0  0  0  0  0  0
  -17.4902  -39.0023   -9.2237 C   0  0  2  0  0  0  0  0  0  0  0  0
  -18.2545  -37.8652   -8.9690 O   0  0  0  0  0  0  0  0  0  0  0  0
  -18.0630  -40.1263   -8.4003 C   0  0  2  0  0  0  0  0  0  0  0  0
  -18.7673  -39.4587   -7.2137 C   0  0  0  0  0  0  0  0  0  0  0  0
  -19.9878  -38.7209   -7.5969 C   0  0  2  0  0  0  0  0  0  0  0  0
  -19.9094  -37.2670   -7.1117 C   0  0  0  0  0  0  0  0  0  0  0  0
  -21.2640  -39.2833   -6.9988 C   0  0  0  0  0  0  0  0  0  0  0  0
  -21.3291  -39.1241   -5.5123 C   0  0  0  0  0  0  0  0  0  0  0  0
  -21.5298  -40.4447   -4.8000 C   0  0  0  0  0  0  0  0  0  0  0  0
  -22.9056  -41.0055   -4.9930 C   0  0  0  0  0  0  0  0  0  0  0  0
  -22.9437  -42.4096   -4.4579 C   0  0  0  0  0  0  0  0  0  0  0  0
  -23.0513  -43.4516   -5.5498 C   0  0  0  0  0  0  0  0  0  0  0  0
  -21.7359  -43.5265   -6.2948 C   0  0  0  0  0  0  0  0  0  0  0  0
  -21.6198  -44.7569   -7.1499 C   0  0  0  0  0  0  0  0  0  0  0  0
  -19.9631  -44.8781   -7.7491 S   0  0  0  0  0  6  0  0  0  0  0  0
  -19.9751  -45.6852   -9.0115 O   0  0  0  0  0  0  0  0  0  0  0  0
  -19.0976  -45.6097   -6.7358 O   0  0  0  0  0  0  0  0  0  0  0  0
  -19.2684  -43.2558   -8.0639 C   0  0  0  0  0  0  0  0  0  0  0  0
  -17.7716  -43.3273   -8.1827 C   0  0  1  0  0  0  0  0  0  0  0  0
  -17.3188  -43.3000   -9.6485 C   0  0  0  0  0  0  0  0  0  0  0  0
  -17.0851  -42.2521   -7.4009 C   0  0  0  0  0  0  0  0  0  0  0  0
  -16.5769  -42.5953   -6.2975 O   0  0  0  0  0  0  0  0  0  0  0  0
  -16.9842  -40.9082   -7.8323 N   0  0  0  0  0  0  0  0  0  0  0  0
  1  2  1  0
  2  3  1  0
  3  4  1  0
  4  5  1  0
  5  6  1  0
  6  7  2  0
  6  8  1  0
  8  9  1  1
  8 10  1  0
 10 11  1  0
 11 12  1  1
 11 13  1  0
 13 14  1  1
 14 15  1  0
 15 16  1  1
 15 17  1  0
 17 18  1  0
 18 19  1  0
 19 20  1  0
 20 21  1  0
 21 22  1  0
 22 23  1  0
 23 24  1  0
 24 25  1  0
 25 26  2  0
 25 27  2  0
 25 28  1  0
 28 29  1  0
 29 30  1  6
 29 31  1  0
 31 32  2  0
 31 33  1  0
 33 13  1  0
M  END
$$$$
