
     RDKit          3D

 33 33  0  0  0  0  0  0  0  0999 V2000
  -11.8595  -41.4609  -13.5824 C   0  0  0  0  0  0  0  0  0  0  0  0
  -12.3345  -40.2904  -12.7566 C   0  0  0  0  0  0  0  0  0  0  0  0
  -13.6762  -39.8543  -13.2886 C   0  0  0  0  0  0  0  0  0  0  0  0
  -14.0616  -38.5519  -12.6583 C   0  0  0  0  0  0  0  0  0  0  0  0
  -13.7893  -38.5966  -11.2528 N   0  0  0  0  0  0  0  0  0  0  0  0
  -14.6905  -39.3642  -10.4420 C   0  0  0  0  0  0  0  0  0  0  0  0
  -15.4061  -40.2867  -10.9021 O   0  0  0  0  0  0  0  0  0  0  0  0
  -14.7492  -39.0196   -8.9978 C   0  0  2  0  0  0  0  0  0  0  0  0
  -13.3413  -38.9853   -8.4833 C   0  0  0  0  0  0  0  0  0  0  0  0
  -15.6016  -40.0704   -8.3158 C   0  0  0  0  0  0  0  0  0  0  0  0
  -17.0250  -39.8711   -8.7357 C   0  0  2  0  0  0  0  0  0  0  0  0
  -17.4283  -38.5781   -8.4075 O   0  0  0  0  0  0  0  0  0  0  0  0
  -17.9855  -40.8259   -8.0759 C   0  0  2  0  0  0  0  0  0  0  0  0
  -18.9027  -39.9607   -7.2042 C   0  0  0  0  0  0  0  0  0  0  0  0
  -19.8218  -39.1097   -7.9863 C   0  0  2  0  0  0  0  0  0  0  0  0
  -19.6699  -37.6386   -7.5759 C   0  0  0  0  0  0  0  0  0  0  0  0
  -21.2897  -39.4398   -7.7886 C   0  0  0  0  0  0  0  0  0  0  0  0
  -21.7743  -39.1312   -6.4068 C   0  0  0  0  0  0  0  0  0  0  0  0
  -22.3815  -40.3394   -5.7263 C   0  0  0  0  0  0  0  0  0  0  0  0
  -23.7045  -40.7310   -6.3102 C   0  0  0  0  0  0  0  0  0  0  0  0
  -24.1183  -42.0600   -5.7428 C   0  0  0  0  0  0  0  0  0  0  0  0
  -24.0514  -43.1790   -6.7590 C   0  0  0  0  0  0  0  0  0  0  0  0
  -22.6007  -43.4970   -7.0513 C   0  0  0  0  0  0  0  0  0  0  0  0
  -22.4237  -44.8086   -7.7636 C   0  0  0  0  0  0  0  0  0  0  0  0
  -20.7030  -45.2029   -7.8087 S   0  0  0  0  0  6  0  0  0  0  0  0
  -20.4585  -46.1191   -8.9687 O   0  0  0  0  0  0  0  0  0  0  0  0
  -20.3068  -45.9406   -6.5399 O   0  0  0  0  0  0  0  0  0  0  0  0
  -19.7041  -43.7234   -7.9733 C   0  0  0  0  0  0  0  0  0  0  0  0
  -18.2709  -44.0016   -7.6151 C   0  0  1  0  0  0  0  0  0  0  0  0
  -17.3991  -44.1750   -8.8657 C   0  0  0  0  0  0  0  0  0  0  0  0
  -17.6945  -42.9554   -6.7140 C   0  0  0  0  0  0  0  0  0  0  0  0
  -17.6018  -43.2544   -5.4912 O   0  0  0  0  0  0  0  0  0  0  0  0
  -17.2623  -41.6841   -7.1605 N   0  0  0  0  0  0  0  0  0  0  0  0
  1  2  1  0
  2  3  1  0
  3  4  1  0
  4  5  1  0
  5  6  1  0
  6  7  2  0
  6  8  1  0
  8  9  1  1
  8 10  1  0
 10 11  1  0
 11 12  1  1
 11 13  1  0
 13 14  1  1
 14 15  1  0
 15 16  1  1
 15 17  1  0
 17 18  1  0
 18 19  1  0
 19 20  1  0
 20 21  1  0
 21 22  1  0
 22 23  1  0
 23 24  1  0
 24 25  1  0
 25 26  2  0
 25 27  2  0
 25 28  1  0
 28 29  1  0
 29 30  1  6
 29 31  1  0
 31 32  2  0
 31 33  1  0
 33 13  1  0
M  END
$$$$
