
     RDKit          3D

 33 33  0  0  0  0  0  0  0  0999 V2000
  -12.4739  -34.1685  -12.6004 C   0  0  0  0  0  0  0  0  0  0  0  0
  -13.3373  -35.3735  -12.8836 C   0  0  0  0  0  0  0  0  0  0  0  0
  -12.9802  -36.4505  -11.8907 C   0  0  0  0  0  0  0  0  0  0  0  0
  -14.2107  -36.8693  -11.1474 C   0  0  0  0  0  0  0  0  0  0  0  0
  -14.0499  -38.2074  -10.6627 N   0  0  0  0  0  0  0  0  0  0  0  0
  -15.0987  -38.7266   -9.8324 C   0  0  0  0  0  0  0  0  0  0  0  0
  -16.2476  -38.9859  -10.2655 O   0  0  0  0  0  0  0  0  0  0  0  0
  -14.7684  -38.9532   -8.4015 C   0  0  2  0  0  0  0  0  0  0  0  0
  -13.8922  -40.1675   -8.3262 C   0  0  0  0  0  0  0  0  0  0  0  0
  -16.0767  -39.1222   -7.6560 C   0  0  0  0  0  0  0  0  0  0  0  0
  -17.1075  -39.6279   -8.6171 C   0  0  2  0  0  0  0  0  0  0  0  0
  -17.8871  -38.5625   -9.0636 O   0  0  0  0  0  0  0  0  0  0  0  0
  -18.0382  -40.6496   -8.0177 C   0  0  2  0  0  0  0  0  0  0  0  0
  -19.0676  -39.8534   -7.2077 C   0  0  0  0  0  0  0  0  0  0  0  0
  -19.9930  -39.0674   -8.0482 C   0  0  2  0  0  0  0  0  0  0  0  0
  -19.9715  -37.5903   -7.6319 C   0  0  0  0  0  0  0  0  0  0  0  0
  -21.4435  -39.5007   -7.9433 C   0  0  0  0  0  0  0  0  0  0  0  0
  -22.0352  -39.2304   -6.5956 C   0  0  0  0  0  0  0  0  0  0  0  0
  -22.5977  -40.4800   -5.9525 C   0  0  0  0  0  0  0  0  0  0  0  0
  -23.8501  -40.9625   -6.6184 C   0  0  0  0  0  0  0  0  0  0  0  0
  -24.2043  -42.3188   -6.0756 C   0  0  0  0  0  0  0  0  0  0  0  0
  -23.9943  -43.4278   -7.0833 C   0  0  0  0  0  0  0  0  0  0  0  0
  -22.5092  -43.6420   -7.2824 C   0  0  0  0  0  0  0  0  0  0  0  0
  -22.1954  -44.9361   -7.9793 C   0  0  0  0  0  0  0  0  0  0  0  0
  -20.4518  -45.2080   -7.9144 S   0  0  0  0  0  6  0  0  0  0  0  0
  -20.0702  -46.1018   -9.0548 O   0  0  0  0  0  0  0  0  0  0  0  0
  -20.0858  -45.9190   -6.6216 O   0  0  0  0  0  0  0  0  0  0  0  0
  -19.5512  -43.6613   -8.0183 C   0  0  0  0  0  0  0  0  0  0  0  0
  -18.1276  -43.8387   -7.5694 C   0  0  1  0  0  0  0  0  0  0  0  0
  -17.1682  -43.9471   -8.7619 C   0  0  0  0  0  0  0  0  0  0  0  0
  -17.6847  -42.7566   -6.6357 C   0  0  0  0  0  0  0  0  0  0  0  0
  -17.6488  -43.0514   -5.4089 O   0  0  0  0  0  0  0  0  0  0  0  0
  -17.3158  -41.4570   -7.0565 N   0  0  0  0  0  0  0  0  0  0  0  0
  1  2  1  0
  2  3  1  0
  3  4  1  0
  4  5  1  0
  5  6  1  0
  6  7  2  0
  6  8  1  0
  8  9  1  6
  8 10  1  0
 10 11  1  0
 11 12  1  1
 11 13  1  0
 13 14  1  1
 14 15  1  0
 15 16  1  1
 15 17  1  0
 17 18  1  0
 18 19  1  0
 19 20  1  0
 20 21  1  0
 21 22  1  0
 22 23  1  0
 23 24  1  0
 24 25  1  0
 25 26  2  0
 25 27  2  0
 25 28  1  0
 28 29  1  0
 29 30  1  6
 29 31  1  0
 31 32  2  0
 31 33  1  0
 33 13  1  0
M  END
$$$$
