
     RDKit          3D

 33 33  0  0  0  0  0  0  0  0999 V2000
  -12.3253  -37.7292  -14.9753 C   0  0  0  0  0  0  0  0  0  0  0  0
  -12.7444  -36.8881  -13.7944 C   0  0  0  0  0  0  0  0  0  0  0  0
  -12.9279  -37.8017  -12.6090 C   0  0  0  0  0  0  0  0  0  0  0  0
  -14.3371  -37.6967  -12.1138 C   0  0  0  0  0  0  0  0  0  0  0  0
  -14.3695  -37.9187  -10.6992 N   0  0  0  0  0  0  0  0  0  0  0  0
  -14.4430  -39.2823  -10.2585 C   0  0  0  0  0  0  0  0  0  0  0  0
  -14.8374  -40.2180  -10.9958 O   0  0  0  0  0  0  0  0  0  0  0  0
  -14.0240  -39.5563   -8.8595 C   0  0  2  0  0  0  0  0  0  0  0  0
  -12.6088  -40.0497   -8.8993 C   0  0  0  0  0  0  0  0  0  0  0  0
  -14.9889  -40.5759   -8.2892 C   0  0  0  0  0  0  0  0  0  0  0  0
  -16.3593  -39.9728   -8.2713 C   0  0  2  0  0  0  0  0  0  0  0  0
  -16.3458  -38.8147   -7.4963 O   0  0  0  0  0  0  0  0  0  0  0  0
  -17.4111  -40.8875   -7.6999 C   0  0  2  0  0  0  0  0  0  0  0  0
  -18.3227  -39.9964   -6.8487 C   0  0  0  0  0  0  0  0  0  0  0  0
  -19.1434  -39.0649   -7.6483 C   0  0  2  0  0  0  0  0  0  0  0  0
  -18.9271  -37.6204   -7.1771 C   0  0  0  0  0  0  0  0  0  0  0  0
  -20.6373  -39.3100   -7.5428 C   0  0  0  0  0  0  0  0  0  0  0  0
  -21.1798  -39.0175   -6.1792 C   0  0  0  0  0  0  0  0  0  0  0  0
  -21.8959  -40.2076   -5.5770 C   0  0  0  0  0  0  0  0  0  0  0  0
  -23.2048  -40.4972   -6.2460 C   0  0  0  0  0  0  0  0  0  0  0  0
  -23.7289  -41.8160   -5.7504 C   0  0  0  0  0  0  0  0  0  0  0  0
  -23.6718  -42.9031   -6.8013 C   0  0  0  0  0  0  0  0  0  0  0  0
  -22.2286  -43.3003   -7.0256 C   0  0  0  0  0  0  0  0  0  0  0  0
  -22.0905  -44.5963   -7.7742 C   0  0  0  0  0  0  0  0  0  0  0  0
  -20.3967  -45.0945   -7.7398 S   0  0  0  0  0  6  0  0  0  0  0  0
  -20.1423  -45.9855   -8.9172 O   0  0  0  0  0  0  0  0  0  0  0  0
  -20.1178  -45.8966   -6.4788 O   0  0  0  0  0  0  0  0  0  0  0  0
  -19.3032  -43.6750   -7.7960 C   0  0  0  0  0  0  0  0  0  0  0  0
  -17.9118  -44.0529   -7.3706 C   0  0  1  0  0  0  0  0  0  0  0  0
  -16.9826  -44.2387   -8.5774 C   0  0  0  0  0  0  0  0  0  0  0  0
  -17.3257  -43.0745   -6.4022 C   0  0  0  0  0  0  0  0  0  0  0  0
  -17.3203  -43.4187   -5.1878 O   0  0  0  0  0  0  0  0  0  0  0  0
  -16.7935  -41.8184   -6.7781 N   0  0  0  0  0  0  0  0  0  0  0  0
  1  2  1  0
  2  3  1  0
  3  4  1  0
  4  5  1  0
  5  6  1  0
  6  7  2  0
  6  8  1  0
  8  9  1  6
  8 10  1  0
 10 11  1  0
 11 12  1  1
 11 13  1  0
 13 14  1  1
 14 15  1  0
 15 16  1  1
 15 17  1  0
 17 18  1  0
 18 19  1  0
 19 20  1  0
 20 21  1  0
 21 22  1  0
 22 23  1  0
 23 24  1  0
 24 25  1  0
 25 26  2  0
 25 27  2  0
 25 28  1  0
 28 29  1  0
 29 30  1  6
 29 31  1  0
 31 32  2  0
 31 33  1  0
 33 13  1  0
M  END
$$$$
