
     RDKit          3D

 33 33  0  0  0  0  0  0  0  0999 V2000
  -14.1381  -35.8827  -14.9805 C   0  0  0  0  0  0  0  0  0  0  0  0
  -14.3625  -37.3330  -14.6287 C   0  0  0  0  0  0  0  0  0  0  0  0
  -14.0176  -37.5217  -13.1731 C   0  0  0  0  0  0  0  0  0  0  0  0
  -15.2085  -37.1812  -12.3318 C   0  0  0  0  0  0  0  0  0  0  0  0
  -14.8311  -37.1515  -10.9504 N   0  0  0  0  0  0  0  0  0  0  0  0
  -14.7705  -38.4120  -10.2677 C   0  0  0  0  0  0  0  0  0  0  0  0
  -14.8428  -39.5148  -10.8622 O   0  0  0  0  0  0  0  0  0  0  0  0
  -14.6147  -38.3656   -8.7907 C   0  0  2  0  0  0  0  0  0  0  0  0
  -13.1464  -38.3992   -8.4893 C   0  0  0  0  0  0  0  0  0  0  0  0
  -15.3620  -39.5533   -8.2190 C   0  0  0  0  0  0  0  0  0  0  0  0
  -16.8102  -39.1907   -8.1035 C   0  0  2  0  0  0  0  0  0  0  0  0
  -16.9636  -38.1977   -7.1377 O   0  0  0  0  0  0  0  0  0  0  0  0
  -17.6896  -40.3476   -7.7067 C   0  0  2  0  0  0  0  0  0  0  0  0
  -18.7617  -39.7601   -6.7818 C   0  0  0  0  0  0  0  0  0  0  0  0
  -19.7228  -38.8843   -7.4817 C   0  0  2  0  0  0  0  0  0  0  0  0
  -19.7786  -37.5054   -6.8101 C   0  0  0  0  0  0  0  0  0  0  0  0
  -21.1496  -39.4008   -7.4741 C   0  0  0  0  0  0  0  0  0  0  0  0
  -21.7597  -39.4040   -6.1077 C   0  0  0  0  0  0  0  0  0  0  0  0
  -22.2600  -40.7744   -5.7036 C   0  0  0  0  0  0  0  0  0  0  0  0
  -23.4834  -41.1926   -6.4606 C   0  0  0  0  0  0  0  0  0  0  0  0
  -23.7698  -42.6396   -6.1714 C   0  0  0  0  0  0  0  0  0  0  0  0
  -23.4993  -43.5401   -7.3568 C   0  0  0  0  0  0  0  0  0  0  0  0
  -22.0044  -43.6415   -7.5714 C   0  0  0  0  0  0  0  0  0  0  0  0
  -21.6219  -44.7740   -8.4825 C   0  0  0  0  0  0  0  0  0  0  0  0
  -19.8670  -44.9660   -8.4442 S   0  0  0  0  0  6  0  0  0  0  0  0
  -19.4356  -45.6230   -9.7198 O   0  0  0  0  0  0  0  0  0  0  0  0
  -19.4701  -45.8764   -7.2931 O   0  0  0  0  0  0  0  0  0  0  0  0
  -19.0464  -43.3827   -8.2606 C   0  0  0  0  0  0  0  0  0  0  0  0
  -17.6174  -43.5660   -7.8318 C   0  0  1  0  0  0  0  0  0  0  0  0
  -16.6489  -43.4131   -9.0121 C   0  0  0  0  0  0  0  0  0  0  0  0
  -17.2342  -42.6464   -6.7155 C   0  0  0  0  0  0  0  0  0  0  0  0
  -17.1881  -43.1522   -5.5599 O   0  0  0  0  0  0  0  0  0  0  0  0
  -16.9306  -41.2759   -6.8945 N   0  0  0  0  0  0  0  0  0  0  0  0
  1  2  1  0
  2  3  1  0
  3  4  1  0
  4  5  1  0
  5  6  1  0
  6  7  2  0
  6  8  1  0
  8  9  1  6
  8 10  1  0
 10 11  1  0
 11 12  1  1
 11 13  1  0
 13 14  1  1
 14 15  1  0
 15 16  1  1
 15 17  1  0
 17 18  1  0
 18 19  1  0
 19 20  1  0
 20 21  1  0
 21 22  1  0
 22 23  1  0
 23 24  1  0
 24 25  1  0
 25 26  2  0
 25 27  2  0
 25 28  1  0
 28 29  1  0
 29 30  1  6
 29 31  1  0
 31 32  2  0
 31 33  1  0
 33 13  1  0
M  END
$$$$
