
     RDKit          3D

 33 33  0  0  0  0  0  0  0  0999 V2000
  -11.5445  -35.2563  -13.6595 C   0  0  0  0  0  0  0  0  0  0  0  0
  -12.0168  -36.6335  -13.2620 C   0  0  0  0  0  0  0  0  0  0  0  0
  -13.3640  -36.4946  -12.5994 C   0  0  0  0  0  0  0  0  0  0  0  0
  -13.9309  -37.8551  -12.3353 C   0  0  0  0  0  0  0  0  0  0  0  0
  -13.9325  -38.1122  -10.9263 N   0  0  0  0  0  0  0  0  0  0  0  0
  -14.5195  -39.3479  -10.4934 C   0  0  0  0  0  0  0  0  0  0  0  0
  -15.1962  -40.0848  -11.2510 O   0  0  0  0  0  0  0  0  0  0  0  0
  -14.2924  -39.7361   -9.0772 C   0  0  2  0  0  0  0  0  0  0  0  0
  -12.8755  -40.2121   -8.9602 C   0  0  0  0  0  0  0  0  0  0  0  0
  -15.3058  -40.8088   -8.7336 C   0  0  0  0  0  0  0  0  0  0  0  0
  -16.6687  -40.1886   -8.7289 C   0  0  2  0  0  0  0  0  0  0  0  0
  -16.6121  -38.9502   -8.0922 O   0  0  0  0  0  0  0  0  0  0  0  0
  -17.7039  -41.0178   -8.0146 C   0  0  2  0  0  0  0  0  0  0  0  0
  -18.4570  -40.0474   -7.0975 C   0  0  0  0  0  0  0  0  0  0  0  0
  -19.3034  -39.0856   -7.8316 C   0  0  2  0  0  0  0  0  0  0  0  0
  -18.9466  -37.6464   -7.4353 C   0  0  0  0  0  0  0  0  0  0  0  0
  -20.7882  -39.2300   -7.5533 C   0  0  0  0  0  0  0  0  0  0  0  0
  -21.1545  -38.8677   -6.1484 C   0  0  0  0  0  0  0  0  0  0  0  0
  -21.8704  -39.9926   -5.4316 C   0  0  0  0  0  0  0  0  0  0  0  0
  -23.2617  -40.2137   -5.9415 C   0  0  0  0  0  0  0  0  0  0  0  0
  -23.8072  -41.4823   -5.3476 C   0  0  0  0  0  0  0  0  0  0  0  0
  -23.9360  -42.5976   -6.3620 C   0  0  0  0  0  0  0  0  0  0  0  0
  -22.5546  -43.0936   -6.7315 C   0  0  0  0  0  0  0  0  0  0  0  0
  -22.5820  -44.4147   -7.4476 C   0  0  0  0  0  0  0  0  0  0  0  0
  -20.9292  -45.0211   -7.5846 S   0  0  0  0  0  6  0  0  0  0  0  0
  -20.8646  -45.9570   -8.7529 O   0  0  0  0  0  0  0  0  0  0  0  0
  -20.5601  -45.8068   -6.3365 O   0  0  0  0  0  0  0  0  0  0  0  0
  -19.7634  -43.6778   -7.8084 C   0  0  0  0  0  0  0  0  0  0  0  0
  -18.3590  -44.1343   -7.5276 C   0  0  1  0  0  0  0  0  0  0  0  0
  -17.5849  -44.4114   -8.8230 C   0  0  0  0  0  0  0  0  0  0  0  0
  -17.6082  -43.1713   -6.6629 C   0  0  0  0  0  0  0  0  0  0  0  0
  -17.4873  -43.4836   -5.4458 O   0  0  0  0  0  0  0  0  0  0  0  0
  -17.0451  -41.9627   -7.1367 N   0  0  0  0  0  0  0  0  0  0  0  0
  1  2  1  0
  2  3  1  0
  3  4  1  0
  4  5  1  0
  5  6  1  0
  6  7  2  0
  6  8  1  0
  8  9  1  6
  8 10  1  0
 10 11  1  0
 11 12  1  1
 11 13  1  0
 13 14  1  1
 14 15  1  0
 15 16  1  1
 15 17  1  0
 17 18  1  0
 18 19  1  0
 19 20  1  0
 20 21  1  0
 21 22  1  0
 22 23  1  0
 23 24  1  0
 24 25  1  0
 25 26  2  0
 25 27  2  0
 25 28  1  0
 28 29  1  0
 29 30  1  6
 29 31  1  0
 31 32  2  0
 31 33  1  0
 33 13  1  0
M  END
$$$$
