
     RDKit          3D

 33 33  0  0  0  0  0  0  0  0999 V2000
  -14.6541  -35.1945  -13.7249 C   0  0  0  0  0  0  0  0  0  0  0  0
  -13.6764  -35.6441  -12.6668 C   0  0  0  0  0  0  0  0  0  0  0  0
  -14.4236  -36.4886  -11.6658 C   0  0  0  0  0  0  0  0  0  0  0  0
  -13.9159  -37.8960  -11.7252 C   0  0  0  0  0  0  0  0  0  0  0  0
  -13.5399  -38.3293  -10.4129 N   0  0  0  0  0  0  0  0  0  0  0  0
  -14.4311  -39.2376   -9.7499 C   0  0  0  0  0  0  0  0  0  0  0  0
  -15.4063  -39.7791  -10.3247 O   0  0  0  0  0  0  0  0  0  0  0  0
  -14.1518  -39.5232   -8.3186 C   0  0  2  0  0  0  0  0  0  0  0  0
  -12.7660  -40.0888   -8.2322 C   0  0  0  0  0  0  0  0  0  0  0  0
  -15.2146  -40.4881   -7.8337 C   0  0  0  0  0  0  0  0  0  0  0  0
  -16.5582  -39.9296   -8.1871 C   0  0  2  0  0  0  0  0  0  0  0  0
  -16.7314  -38.7017   -7.5512 O   0  0  0  0  0  0  0  0  0  0  0  0
  -17.7046  -40.8170   -7.7776 C   0  0  2  0  0  0  0  0  0  0  0  0
  -18.6702  -39.9189   -6.9962 C   0  0  0  0  0  0  0  0  0  0  0  0
  -19.3559  -38.9211   -7.8416 C   0  0  2  0  0  0  0  0  0  0  0  0
  -19.1361  -37.5071   -7.2869 C   0  0  0  0  0  0  0  0  0  0  0  0
  -20.8608  -39.1020   -7.9153 C   0  0  0  0  0  0  0  0  0  0  0  0
  -21.5429  -38.8380   -6.6098 C   0  0  0  0  0  0  0  0  0  0  0  0
  -22.3708  -40.0167   -6.1440 C   0  0  0  0  0  0  0  0  0  0  0  0
  -23.6056  -40.2207   -6.9676 C   0  0  0  0  0  0  0  0  0  0  0  0
  -24.2360  -41.5325   -6.5917 C   0  0  0  0  0  0  0  0  0  0  0  0
  -24.1037  -42.5797   -7.6758 C   0  0  0  0  0  0  0  0  0  0  0  0
  -22.6617  -43.0331   -7.7536 C   0  0  0  0  0  0  0  0  0  0  0  0
  -22.4920  -44.3041   -8.5376 C   0  0  0  0  0  0  0  0  0  0  0  0
  -20.8349  -44.8796   -8.3350 S   0  0  0  0  0  6  0  0  0  0  0  0
  -20.4844  -45.7352   -9.5140 O   0  0  0  0  0  0  0  0  0  0  0  0
  -20.7345  -45.7415   -7.0867 O   0  0  0  0  0  0  0  0  0  0  0  0
  -19.6853  -43.5101   -8.2064 C   0  0  0  0  0  0  0  0  0  0  0  0
  -18.3680  -43.9668   -7.6444 C   0  0  1  0  0  0  0  0  0  0  0  0
  -17.3156  -44.1479   -8.7461 C   0  0  0  0  0  0  0  0  0  0  0  0
  -17.8568  -43.0540   -6.5747 C   0  0  0  0  0  0  0  0  0  0  0  0
  -18.0039  -43.4446   -5.3834 O   0  0  0  0  0  0  0  0  0  0  0  0
  -17.2345  -41.8098   -6.8336 N   0  0  0  0  0  0  0  0  0  0  0  0
  1  2  1  0
  2  3  1  0
  3  4  1  0
  4  5  1  0
  5  6  1  0
  6  7  2  0
  6  8  1  0
  8  9  1  6
  8 10  1  0
 10 11  1  0
 11 12  1  1
 11 13  1  0
 13 14  1  1
 14 15  1  0
 15 16  1  1
 15 17  1  0
 17 18  1  0
 18 19  1  0
 19 20  1  0
 20 21  1  0
 21 22  1  0
 22 23  1  0
 23 24  1  0
 24 25  1  0
 25 26  2  0
 25 27  2  0
 25 28  1  0
 28 29  1  0
 29 30  1  6
 29 31  1  0
 31 32  2  0
 31 33  1  0
 33 13  1  0
M  END
$$$$
