
     RDKit          3D

 33 33  0  0  0  0  0  0  0  0999 V2000
  -23.0900  -41.2975   -5.5109 C   0  0  0  0  0  0  0  0  0  0  0  0
  -23.4365  -39.8321   -5.6109 C   0  0  0  0  0  0  0  0  0  0  0  0
  -22.1941  -39.0341   -5.3057 C   0  0  0  0  0  0  0  0  0  0  0  0
  -21.0348  -39.6123   -6.0566 C   0  0  0  0  0  0  0  0  0  0  0  0
  -20.1739  -38.5579   -6.5020 N   0  0  0  0  0  0  0  0  0  0  0  0
  -19.6690  -38.6553   -7.8416 C   0  0  0  0  0  0  0  0  0  0  0  0
  -20.2280  -39.3378   -8.7341 O   0  0  0  0  0  0  0  0  0  0  0  0
  -18.4264  -37.8989   -8.1446 C   0  0  2  0  0  0  0  0  0  0  0  0
  -18.8316  -36.5741   -8.7177 C   0  0  0  0  0  0  0  0  0  0  0  0
  -17.6111  -38.7352   -9.1098 C   0  0  0  0  0  0  0  0  0  0  0  0
  -16.4755  -39.3556   -8.3564 C   0  0  2  0  0  0  0  0  0  0  0  0
  -15.4881  -38.3974   -8.1347 O   0  0  0  0  0  0  0  0  0  0  0  0
  -15.8322  -40.5089   -9.0812 C   0  0  2  0  0  0  0  0  0  0  0  0
  -14.4394  -40.0192   -9.4936 C   0  0  0  0  0  0  0  0  0  0  0  0
  -13.5207  -39.8379   -8.3518 C   0  0  2  0  0  0  0  0  0  0  0  0
  -12.9488  -38.4137   -8.3451 C   0  0  0  0  0  0  0  0  0  0  0  0
  -12.3169  -40.7617   -8.3736 C   0  0  0  0  0  0  0  0  0  0  0  0
  -11.3786  -40.4678   -9.5017 C   0  0  0  0  0  0  0  0  0  0  0  0
  -11.1386  -41.6766  -10.3808 C   0  0  0  0  0  0  0  0  0  0  0  0
  -10.3078  -42.7272   -9.7093 C   0  0  0  0  0  0  0  0  0  0  0  0
  -10.3168  -43.9730  -10.5505 C   0  0  0  0  0  0  0  0  0  0  0  0
  -11.1109  -45.0986   -9.9246 C   0  0  0  0  0  0  0  0  0  0  0  0
  -12.5854  -44.7641   -9.9958 C   0  0  0  0  0  0  0  0  0  0  0  0
  -13.4660  -45.9529   -9.7306 C   0  0  0  0  0  0  0  0  0  0  0  0
  -15.1361  -45.5173  -10.1040 S   0  0  0  0  0  6  0  0  0  0  0  0
  -16.0449  -46.4107   -9.3160 O   0  0  0  0  0  0  0  0  0  0  0  0
  -15.4155  -45.7522  -11.5798 O   0  0  0  0  0  0  0  0  0  0  0  0
  -15.4625  -43.8009   -9.7025 C   0  0  0  0  0  0  0  0  0  0  0  0
  -16.7210  -43.3237  -10.3720 C   0  0  1  0  0  0  0  0  0  0  0  0
  -17.9056  -43.2991   -9.3971 C   0  0  0  0  0  0  0  0  0  0  0  0
  -16.5494  -41.9878  -11.0236 C   0  0  0  0  0  0  0  0  0  0  0  0
  -16.4021  -41.9876  -12.2773 O   0  0  0  0  0  0  0  0  0  0  0  0
  -16.5452  -40.7623  -10.3162 N   0  0  0  0  0  0  0  0  0  0  0  0
  1  2  1  0
  2  3  1  0
  3  4  1  0
  4  5  1  0
  5  6  1  0
  6  7  2  0
  6  8  1  0
  8  9  1  6
  8 10  1  0
 10 11  1  0
 11 12  1  6
 11 13  1  0
 13 14  1  6
 14 15  1  0
 15 16  1  6
 15 17  1  0
 17 18  1  0
 18 19  1  0
 19 20  1  0
 20 21  1  0
 21 22  1  0
 22 23  1  0
 23 24  1  0
 24 25  1  0
 25 26  2  0
 25 27  2  0
 25 28  1  0
 28 29  1  0
 29 30  1  1
 29 31  1  0
 31 32  2  0
 31 33  1  0
 33 13  1  0
M  END
$$$$
