
     RDKit          3D

 33 33  0  0  0  0  0  0  0  0999 V2000
  -14.7069  -35.1368  -13.4313 C   0  0  0  0  0  0  0  0  0  0  0  0
  -13.8506  -35.3483  -12.2067 C   0  0  0  0  0  0  0  0  0  0  0  0
  -12.8684  -36.4524  -12.5058 C   0  0  0  0  0  0  0  0  0  0  0  0
  -13.5589  -37.7762  -12.3928 C   0  0  0  0  0  0  0  0  0  0  0  0
  -13.5290  -38.2217  -11.0319 N   0  0  0  0  0  0  0  0  0  0  0  0
  -14.1240  -39.4975  -10.7541 C   0  0  0  0  0  0  0  0  0  0  0  0
  -14.7270  -40.1734  -11.6225 O   0  0  0  0  0  0  0  0  0  0  0  0
  -13.9981  -40.0054   -9.3633 C   0  0  2  0  0  0  0  0  0  0  0  0
  -12.7695  -40.8628   -9.3043 C   0  0  0  0  0  0  0  0  0  0  0  0
  -15.2670  -40.7692   -9.0436 C   0  0  0  0  0  0  0  0  0  0  0  0
  -16.2427  -39.8240   -8.4138 C   0  0  2  0  0  0  0  0  0  0  0  0
  -15.5968  -39.0793   -7.4288 O   0  0  0  0  0  0  0  0  0  0  0  0
  -17.4141  -40.5137   -7.7646 C   0  0  2  0  0  0  0  0  0  0  0  0
  -18.3785  -39.3973   -7.3481 C   0  0  0  0  0  0  0  0  0  0  0  0
  -19.0272  -38.7267   -8.4926 C   0  0  2  0  0  0  0  0  0  0  0  0
  -18.7920  -37.2114   -8.4295 C   0  0  0  0  0  0  0  0  0  0  0  0
  -20.5335  -38.9049   -8.5414 C   0  0  0  0  0  0  0  0  0  0  0  0
  -21.2373  -38.2173   -7.4140 C   0  0  0  0  0  0  0  0  0  0  0  0
  -22.0970  -39.1669   -6.6073 C   0  0  0  0  0  0  0  0  0  0  0  0
  -23.3182  -39.6174   -7.3493 C   0  0  0  0  0  0  0  0  0  0  0  0
  -23.9812  -40.7246   -6.5785 C   0  0  0  0  0  0  0  0  0  0  0  0
  -23.8465  -42.0723   -7.2530 C   0  0  0  0  0  0  0  0  0  0  0  0
  -22.4121  -42.5421   -7.1398 C   0  0  0  0  0  0  0  0  0  0  0  0
  -22.2505  -44.0024   -7.4563 C   0  0  0  0  0  0  0  0  0  0  0  0
  -20.6093  -44.4973   -7.0326 S   0  0  0  0  0  6  0  0  0  0  0  0
  -20.2508  -45.6979   -7.8542 O   0  0  0  0  0  0  0  0  0  0  0  0
  -20.5512  -44.9002   -5.5678 O   0  0  0  0  0  0  0  0  0  0  0  0
  -19.4366  -43.1750   -7.3329 C   0  0  0  0  0  0  0  0  0  0  0  0
  -18.1402  -43.4354   -6.6178 C   0  0  1  0  0  0  0  0  0  0  0  0
  -17.0688  -43.9817   -7.5707 C   0  0  0  0  0  0  0  0  0  0  0  0
  -17.6340  -42.2266   -5.8960 C   0  0  0  0  0  0  0  0  0  0  0  0
  -17.8132  -42.2006   -4.6467 O   0  0  0  0  0  0  0  0  0  0  0  0
  -16.9828  -41.1446   -6.5343 N   0  0  0  0  0  0  0  0  0  0  0  0
  1  2  1  0
  2  3  1  0
  3  4  1  0
  4  5  1  0
  5  6  1  0
  6  7  2  0
  6  8  1  0
  8  9  1  6
  8 10  1  0
 10 11  1  0
 11 12  1  1
 11 13  1  0
 13 14  1  1
 14 15  1  0
 15 16  1  1
 15 17  1  0
 17 18  1  0
 18 19  1  0
 19 20  1  0
 20 21  1  0
 21 22  1  0
 22 23  1  0
 23 24  1  0
 24 25  1  0
 25 26  2  0
 25 27  2  0
 25 28  1  0
 28 29  1  0
 29 30  1  6
 29 31  1  0
 31 32  2  0
 31 33  1  0
 33 13  1  0
M  END
$$$$
