
     RDKit          3D

 33 33  0  0  0  0  0  0  0  0999 V2000
  -12.1401  -37.2841  -15.2498 C   0  0  0  0  0  0  0  0  0  0  0  0
  -13.4433  -37.2516  -14.4893 C   0  0  0  0  0  0  0  0  0  0  0  0
  -13.1383  -37.4538  -13.0266 C   0  0  0  0  0  0  0  0  0  0  0  0
  -14.4137  -37.7028  -12.2826 C   0  0  0  0  0  0  0  0  0  0  0  0
  -14.1324  -37.8862  -10.8903 N   0  0  0  0  0  0  0  0  0  0  0  0
  -14.1655  -39.2322  -10.3940 C   0  0  0  0  0  0  0  0  0  0  0  0
  -14.4030  -40.2240  -11.1252 O   0  0  0  0  0  0  0  0  0  0  0  0
  -13.9015  -39.4166   -8.9434 C   0  0  2  0  0  0  0  0  0  0  0  0
  -12.4854  -39.8870   -8.7975 C   0  0  0  0  0  0  0  0  0  0  0  0
  -14.9128  -40.4177   -8.4228 C   0  0  0  0  0  0  0  0  0  0  0  0
  -16.2342  -39.7273   -8.2837 C   0  0  2  0  0  0  0  0  0  0  0  0
  -16.1404  -38.7399   -7.3047 O   0  0  0  0  0  0  0  0  0  0  0  0
  -17.3564  -40.6513   -7.8884 C   0  0  2  0  0  0  0  0  0  0  0  0
  -18.3467  -39.7912   -7.0952 C   0  0  0  0  0  0  0  0  0  0  0  0
  -19.0585  -38.8002   -7.9269 C   0  0  2  0  0  0  0  0  0  0  0  0
  -18.8776  -37.3889   -7.3515 C   0  0  0  0  0  0  0  0  0  0  0  0
  -20.5579  -39.0207   -8.0049 C   0  0  0  0  0  0  0  0  0  0  0  0
  -21.2479  -38.7944   -6.6965 C   0  0  0  0  0  0  0  0  0  0  0  0
  -22.0438  -40.0017   -6.2487 C   0  0  0  0  0  0  0  0  0  0  0  0
  -23.2720  -40.2272   -7.0766 C   0  0  0  0  0  0  0  0  0  0  0  0
  -23.8669  -41.5609   -6.7205 C   0  0  0  0  0  0  0  0  0  0  0  0
  -23.7054  -42.5883   -7.8195 C   0  0  0  0  0  0  0  0  0  0  0  0
  -22.2516  -43.0012   -7.9023 C   0  0  0  0  0  0  0  0  0  0  0  0
  -22.0469  -44.2556   -8.7044 C   0  0  0  0  0  0  0  0  0  0  0  0
  -20.3749  -44.7888   -8.5082 S   0  0  0  0  0  6  0  0  0  0  0  0
  -20.0004  -45.6174   -9.6991 O   0  0  0  0  0  0  0  0  0  0  0  0
  -20.2520  -45.6658   -7.2725 O   0  0  0  0  0  0  0  0  0  0  0  0
  -19.2630  -43.3906   -8.3585 C   0  0  0  0  0  0  0  0  0  0  0  0
  -17.9342  -43.8196   -7.8016 C   0  0  1  0  0  0  0  0  0  0  0  0
  -16.8764  -43.9560   -8.9047 C   0  0  0  0  0  0  0  0  0  0  0  0
  -17.4487  -42.9089   -6.7183 C   0  0  0  0  0  0  0  0  0  0  0  0
  -17.5861  -43.3206   -5.5330 O   0  0  0  0  0  0  0  0  0  0  0  0
  -16.8603  -41.6446   -6.9584 N   0  0  0  0  0  0  0  0  0  0  0  0
  1  2  1  0
  2  3  1  0
  3  4  1  0
  4  5  1  0
  5  6  1  0
  6  7  2  0
  6  8  1  0
  8  9  1  6
  8 10  1  0
 10 11  1  0
 11 12  1  1
 11 13  1  0
 13 14  1  1
 14 15  1  0
 15 16  1  1
 15 17  1  0
 17 18  1  0
 18 19  1  0
 19 20  1  0
 20 21  1  0
 21 22  1  0
 22 23  1  0
 23 24  1  0
 24 25  1  0
 25 26  2  0
 25 27  2  0
 25 28  1  0
 28 29  1  0
 29 30  1  6
 29 31  1  0
 31 32  2  0
 31 33  1  0
 33 13  1  0
M  END
$$$$
