
     RDKit          3D

 33 33  0  0  0  0  0  0  0  0999 V2000
  -11.5947  -34.7628  -12.0462 C   0  0  0  0  0  0  0  0  0  0  0  0
  -12.4188  -35.9130  -12.5711 C   0  0  0  0  0  0  0  0  0  0  0  0
  -13.2449  -36.4565  -11.4329 C   0  0  0  0  0  0  0  0  0  0  0  0
  -14.1945  -37.4891  -11.9566 C   0  0  0  0  0  0  0  0  0  0  0  0
  -13.7378  -38.7957  -11.5885 N   0  0  0  0  0  0  0  0  0  0  0  0
  -14.5083  -39.4979  -10.6024 C   0  0  0  0  0  0  0  0  0  0  0  0
  -14.5513  -40.7501  -10.5340 O   0  0  0  0  0  0  0  0  0  0  0  0
  -15.2752  -38.6678   -9.6377 C   0  0  2  0  0  0  0  0  0  0  0  0
  -14.5420  -38.7000   -8.3303 C   0  0  0  0  0  0  0  0  0  0  0  0
  -16.6703  -39.2520   -9.5467 C   0  0  0  0  0  0  0  0  0  0  0  0
  -17.1451  -39.1263   -8.1322 C   0  0  2  0  0  0  0  0  0  0  0  0
  -16.0455  -39.0440   -7.2799 O   0  0  0  0  0  0  0  0  0  0  0  0
  -17.9861  -40.2894   -7.6749 C   0  0  2  0  0  0  0  0  0  0  0  0
  -19.1141  -39.6840   -6.8316 C   0  0  0  0  0  0  0  0  0  0  0  0
  -20.0880  -38.9090   -7.6263 C   0  0  2  0  0  0  0  0  0  0  0  0
  -20.2273  -37.4874   -7.0650 C   0  0  0  0  0  0  0  0  0  0  0  0
  -21.4903  -39.4891   -7.6230 C   0  0  0  0  0  0  0  0  0  0  0  0
  -22.1463  -39.4172   -6.2800 C   0  0  0  0  0  0  0  0  0  0  0  0
  -22.5996  -40.7748   -5.7871 C   0  0  0  0  0  0  0  0  0  0  0  0
  -23.7767  -41.3053   -6.5472 C   0  0  0  0  0  0  0  0  0  0  0  0
  -24.0092  -42.7380   -6.1563 C   0  0  0  0  0  0  0  0  0  0  0  0
  -23.6588  -43.7121   -7.2599 C   0  0  0  0  0  0  0  0  0  0  0  0
  -22.1545  -43.7600   -7.4197 C   0  0  0  0  0  0  0  0  0  0  0  0
  -21.6916  -44.9392   -8.2285 C   0  0  0  0  0  0  0  0  0  0  0  0
  -19.9323  -45.0463   -8.1212 S   0  0  0  0  0  6  0  0  0  0  0  0
  -19.4289  -45.7771   -9.3285 O   0  0  0  0  0  0  0  0  0  0  0  0
  -19.5357  -45.8476   -6.8917 O   0  0  0  0  0  0  0  0  0  0  0  0
  -19.1887  -43.4173   -8.0350 C   0  0  0  0  0  0  0  0  0  0  0  0
  -17.7686  -43.5012   -7.5493 C   0  0  1  0  0  0  0  0  0  0  0  0
  -16.7678  -43.3932   -8.7073 C   0  0  0  0  0  0  0  0  0  0  0  0
  -17.4647  -42.4831   -6.4958 C   0  0  0  0  0  0  0  0  0  0  0  0
  -17.4362  -42.8974   -5.3039 O   0  0  0  0  0  0  0  0  0  0  0  0
  -17.2155  -41.1175   -6.7704 N   0  0  0  0  0  0  0  0  0  0  0  0
  1  2  1  0
  2  3  1  0
  3  4  1  0
  4  5  1  0
  5  6  1  0
  6  7  2  0
  6  8  1  0
  8  9  1  1
  8 10  1  0
 10 11  1  0
 11 12  1  1
 11 13  1  0
 13 14  1  1
 14 15  1  0
 15 16  1  1
 15 17  1  0
 17 18  1  0
 18 19  1  0
 19 20  1  0
 20 21  1  0
 21 22  1  0
 22 23  1  0
 23 24  1  0
 24 25  1  0
 25 26  2  0
 25 27  2  0
 25 28  1  0
 28 29  1  0
 29 30  1  6
 29 31  1  0
 31 32  2  0
 31 33  1  0
 33 13  1  0
M  END
$$$$
