
     RDKit          3D

 33 33  0  0  0  0  0  0  0  0999 V2000
  -15.3224  -35.3267  -13.3694 C   0  0  0  0  0  0  0  0  0  0  0  0
  -14.5935  -35.3376  -12.0480 C   0  0  0  0  0  0  0  0  0  0  0  0
  -13.4924  -36.3645  -12.1277 C   0  0  0  0  0  0  0  0  0  0  0  0
  -14.0735  -37.7320  -11.9423 C   0  0  0  0  0  0  0  0  0  0  0  0
  -13.8171  -38.1887  -10.6092 N   0  0  0  0  0  0  0  0  0  0  0  0
  -14.3691  -39.4614  -10.2425 C   0  0  0  0  0  0  0  0  0  0  0  0
  -15.0041  -40.1873  -11.0455 O   0  0  0  0  0  0  0  0  0  0  0  0
  -14.1571  -39.9031   -8.8397 C   0  0  2  0  0  0  0  0  0  0  0  0
  -14.0222  -41.3963   -8.8510 C   0  0  0  0  0  0  0  0  0  0  0  0
  -15.3444  -39.4236   -8.0296 C   0  0  0  0  0  0  0  0  0  0  0  0
  -16.5879  -39.6501   -8.8324 C   0  0  2  0  0  0  0  0  0  0  0  0
  -17.2124  -38.4279   -9.0741 O   0  0  0  0  0  0  0  0  0  0  0  0
  -17.5902  -40.5431   -8.1488 C   0  0  2  0  0  0  0  0  0  0  0  0
  -18.4684  -39.6149   -7.3020 C   0  0  0  0  0  0  0  0  0  0  0  0
  -19.3483  -38.7451   -8.1080 C   0  0  2  0  0  0  0  0  0  0  0  0
  -19.1312  -37.2718   -7.7369 C   0  0  0  0  0  0  0  0  0  0  0  0
  -20.8296  -39.0041   -7.9038 C   0  0  0  0  0  0  0  0  0  0  0  0
  -21.3004  -38.6373   -6.5316 C   0  0  0  0  0  0  0  0  0  0  0  0
  -21.9611  -39.7986   -5.8199 C   0  0  0  0  0  0  0  0  0  0  0  0
  -23.3000  -40.1464   -6.3953 C   0  0  0  0  0  0  0  0  0  0  0  0
  -23.7728  -41.4400   -5.7931 C   0  0  0  0  0  0  0  0  0  0  0  0
  -23.7554  -42.5877   -6.7789 C   0  0  0  0  0  0  0  0  0  0  0  0
  -22.3202  -42.9777   -7.0603 C   0  0  0  0  0  0  0  0  0  0  0  0
  -22.2016  -44.3145   -7.7369 C   0  0  0  0  0  0  0  0  0  0  0  0
  -20.5001  -44.7861   -7.7688 S   0  0  0  0  0  6  0  0  0  0  0  0
  -20.2962  -45.7430   -8.9035 O   0  0  0  0  0  0  0  0  0  0  0  0
  -20.1377  -45.5064   -6.4800 O   0  0  0  0  0  0  0  0  0  0  0  0
  -19.4363  -43.3574   -7.9713 C   0  0  0  0  0  0  0  0  0  0  0  0
  -18.0170  -43.6895   -7.6036 C   0  0  1  0  0  0  0  0  0  0  0  0
  -17.1533  -43.9350   -8.8478 C   0  0  0  0  0  0  0  0  0  0  0  0
  -17.3949  -42.6462   -6.7299 C   0  0  0  0  0  0  0  0  0  0  0  0
  -17.3160  -42.9161   -5.4994 O   0  0  0  0  0  0  0  0  0  0  0  0
  -16.9063  -41.4078   -7.2096 N   0  0  0  0  0  0  0  0  0  0  0  0
  1  2  1  0
  2  3  1  0
  3  4  1  0
  4  5  1  0
  5  6  1  0
  6  7  2  0
  6  8  1  0
  8  9  1  6
  8 10  1  0
 10 11  1  0
 11 12  1  1
 11 13  1  0
 13 14  1  1
 14 15  1  0
 15 16  1  1
 15 17  1  0
 17 18  1  0
 18 19  1  0
 19 20  1  0
 20 21  1  0
 21 22  1  0
 22 23  1  0
 23 24  1  0
 24 25  1  0
 25 26  2  0
 25 27  2  0
 25 28  1  0
 28 29  1  0
 29 30  1  6
 29 31  1  0
 31 32  2  0
 31 33  1  0
 33 13  1  0
M  END
$$$$
