
     RDKit          3D

 34 35  0  0  0  0  0  0  0  0999 V2000
  -11.3327  -42.1052  -14.2158 C   0  0  0  0  0  0  0  0  0  0  0  0
  -12.5786  -42.1016  -13.3794 C   0  0  0  0  0  0  0  0  0  0  0  0
  -12.8669  -40.7388  -12.8036 C   0  0  0  0  0  0  0  0  0  0  0  0
  -14.2726  -40.5992  -12.2964 C   0  0  0  0  0  0  0  0  0  0  0  0
  -14.4524  -39.3141  -11.6786 N   0  0  0  0  0  0  0  0  0  0  0  0
  -14.2637  -39.1286  -10.2596 C   0  0  0  0  0  0  0  0  0  0  0  0
  -13.4402  -39.8988   -9.7451 O   0  0  0  0  0  0  0  0  0  0  0  0
  -15.0573  -38.0749   -9.6345 C   0  0  2  0  0  0  0  0  0  0  0  0
  -14.1577  -36.8376   -9.5768 C   0  0  0  0  0  0  0  0  0  0  0  0
  -15.6339  -38.3684   -8.2799 C   0  0  0  0  0  0  0  0  0  0  0  0
  -17.0797  -38.4815   -8.1759 C   0  0  2  0  0  0  0  0  0  0  0  0
  -17.5885  -37.8325   -7.0638 O   0  0  0  0  0  0  0  0  0  0  0  0
  -17.6137  -39.9270   -8.2655 C   0  0  2  0  0  0  0  0  0  0  0  0
  -19.0133  -40.0614   -8.6635 C   0  0  0  0  0  0  0  0  0  0  0  0
  -20.1270  -40.0035   -7.6997 C   0  0  0  0  0  0  0  0  0  0  0  0
  -21.4783  -40.1478   -7.8759 C   0  0  0  0  0  0  0  0  0  0  0  0
  -22.2997  -40.0756   -6.7505 C   0  0  0  0  0  0  0  0  0  0  0  0
  -21.7398  -39.8548   -5.4854 C   0  0  0  0  0  0  0  0  0  0  0  0
  -20.3997  -39.7042   -5.2737 C   0  0  0  0  0  0  0  0  0  0  0  0
  -19.6215  -39.7842   -6.3980 C   0  0  0  0  0  0  0  0  0  0  0  0
  -23.6730  -40.1989   -6.6834 O   0  0  0  0  0  0  0  0  0  0  0  0
  -24.6165  -41.1741   -6.9662 C   0  0  0  0  0  0  0  0  0  0  0  0
  -24.0704  -42.2280   -7.8613 C   0  0  0  0  0  0  0  0  0  0  0  0
  -23.0561  -43.1350   -7.1970 C   0  0  0  0  0  0  0  0  0  0  0  0
  -22.3104  -43.9794   -8.1642 C   0  0  0  0  0  0  0  0  0  0  0  0
  -20.8457  -43.6546   -8.3231 C   0  0  0  0  0  0  0  0  0  0  0  0
  -20.1229  -43.5987   -7.0354 C   0  0  0  0  0  0  0  0  0  0  0  0
  -20.7697  -44.0785   -6.0331 O   0  0  0  0  0  0  0  0  0  0  0  0
  -18.8361  -43.0742   -6.8734 N   0  0  0  0  0  0  0  0  0  0  0  0
  -17.6566  -43.3086   -7.6504 C   0  0  1  0  0  0  0  0  0  0  0  0
  -17.8459  -43.7717   -9.0531 C   0  0  0  0  0  0  0  0  0  0  0  0
  -16.6628  -42.2105   -7.4968 C   0  0  0  0  0  0  0  0  0  0  0  0
  -15.4405  -42.6738   -7.3892 O   0  0  0  0  0  0  0  0  0  0  0  0
  -16.9018  -40.8383   -7.4586 N   0  0  0  0  0  0  0  0  0  0  0  0
  1  2  1  0
  2  3  1  0
  3  4  1  0
  4  5  1  0
  5  6  1  0
  6  7  2  0
  6  8  1  0
  8  9  1  1
  8 10  1  0
 10 11  1  0
 11 12  1  1
 11 13  1  0
 13 14  1  1
 14 15  1  0
 15 16  1  0
 16 17  2  0
 17 18  1  0
 18 19  2  0
 19 20  1  0
 17 21  1  0
 21 22  1  0
 22 23  1  0
 23 24  1  0
 24 25  1  0
 25 26  1  0
 26 27  1  0
 27 28  2  0
 27 29  1  0
 29 30  1  0
 30 31  1  6
 30 32  1  0
 32 33  2  0
 32 34  1  0
 20 15  2  0
 34 13  1  0
M  END
$$$$
