
     RDKit          3D

 34 35  0  0  0  0  0  0  0  0999 V2000
  -22.7865  -42.7814   -4.9658 C   0  0  0  0  0  0  0  0  0  0  0  0
  -21.5175  -42.1585   -5.4695 C   0  0  0  0  0  0  0  0  0  0  0  0
  -20.4836  -42.0268   -4.3807 C   0  0  0  0  0  0  0  0  0  0  0  0
  -19.2256  -41.3507   -4.8421 C   0  0  0  0  0  0  0  0  0  0  0  0
  -19.4912  -39.9764   -5.1682 N   0  0  0  0  0  0  0  0  0  0  0  0
  -19.1498  -39.4303   -6.4601 C   0  0  0  0  0  0  0  0  0  0  0  0
  -18.8307  -40.2761   -7.3081 O   0  0  0  0  0  0  0  0  0  0  0  0
  -19.2262  -37.9783   -6.5886 C   0  0  2  0  0  0  0  0  0  0  0  0
  -20.7136  -37.6206   -6.5336 C   0  0  0  0  0  0  0  0  0  0  0  0
  -18.5834  -37.3664   -7.7993 C   0  0  0  0  0  0  0  0  0  0  0  0
  -17.2032  -37.7263   -8.0808 C   0  0  2  0  0  0  0  0  0  0  0  0
  -16.5456  -36.7730   -8.8395 O   0  0  0  0  0  0  0  0  0  0  0  0
  -17.0228  -39.1352   -8.6852 C   0  0  2  0  0  0  0  0  0  0  0  0
  -15.6525  -39.6421   -8.7118 C   0  0  0  0  0  0  0  0  0  0  0  0
  -14.7146  -39.3518   -9.8112 C   0  0  0  0  0  0  0  0  0  0  0  0
  -13.4262  -39.7653  -10.0280 C   0  0  0  0  0  0  0  0  0  0  0  0
  -12.7895  -39.3480  -11.1972 C   0  0  0  0  0  0  0  0  0  0  0  0
  -13.4634  -38.5242  -12.1082 C   0  0  0  0  0  0  0  0  0  0  0  0
  -14.7449  -38.0916  -11.9232 C   0  0  0  0  0  0  0  0  0  0  0  0
  -15.3421  -38.5222  -10.7682 C   0  0  0  0  0  0  0  0  0  0  0  0
  -11.5114  -39.6423  -11.6280 O   0  0  0  0  0  0  0  0  0  0  0  0
  -10.7969  -40.7781  -11.9748 C   0  0  0  0  0  0  0  0  0  0  0  0
  -11.4385  -42.0145  -11.4553 C   0  0  0  0  0  0  0  0  0  0  0  0
  -12.7279  -42.3815  -12.1593 C   0  0  0  0  0  0  0  0  0  0  0  0
  -13.5002  -43.4309  -11.4474 C   0  0  0  0  0  0  0  0  0  0  0  0
  -14.8040  -42.9822  -10.8352 C   0  0  0  0  0  0  0  0  0  0  0  0
  -15.6771  -42.2704  -11.7917 C   0  0  0  0  0  0  0  0  0  0  0  0
  -15.3213  -42.3702  -13.0232 O   0  0  0  0  0  0  0  0  0  0  0  0
  -16.8106  -41.5342  -11.4305 N   0  0  0  0  0  0  0  0  0  0  0  0
  -17.8817  -41.8918  -10.5504 C   0  0  1  0  0  0  0  0  0  0  0  0
  -17.6007  -42.9326   -9.5231 C   0  0  0  0  0  0  0  0  0  0  0  0
  -18.5959  -40.6937  -10.0292 C   0  0  0  0  0  0  0  0  0  0  0  0
  -19.8954  -40.8708  -10.0162 O   0  0  0  0  0  0  0  0  0  0  0  0
  -18.0444  -39.4921   -9.5892 N   0  0  0  0  0  0  0  0  0  0  0  0
  1  2  1  0
  2  3  1  0
  3  4  1  0
  4  5  1  0
  5  6  1  0
  6  7  2  0
  6  8  1  0
  8  9  1  6
  8 10  1  0
 10 11  1  0
 11 12  1  6
 11 13  1  0
 13 14  1  6
 14 15  1  0
 15 16  1  0
 16 17  2  0
 17 18  1  0
 18 19  2  0
 19 20  1  0
 17 21  1  0
 21 22  1  0
 22 23  1  0
 23 24  1  0
 24 25  1  0
 25 26  1  0
 26 27  1  0
 27 28  2  0
 27 29  1  0
 29 30  1  0
 30 31  1  1
 30 32  1  0
 32 33  2  0
 32 34  1  0
 20 15  2  0
 34 13  1  0
M  END
$$$$
