
     RDKit          3D

 34 35  0  0  0  0  0  0  0  0999 V2000
  -10.2329  -40.1193  -13.6855 C   0  0  0  0  0  0  0  0  0  0  0  0
  -11.1637  -39.0099  -13.2919 C   0  0  0  0  0  0  0  0  0  0  0  0
  -12.3534  -39.5198  -12.5195 C   0  0  0  0  0  0  0  0  0  0  0  0
  -13.6649  -39.0662  -13.0910 C   0  0  0  0  0  0  0  0  0  0  0  0
  -14.7398  -39.4086  -12.2005 N   0  0  0  0  0  0  0  0  0  0  0  0
  -14.6912  -39.0709  -10.7979 C   0  0  0  0  0  0  0  0  0  0  0  0
  -13.7657  -39.6070  -10.1715 O   0  0  0  0  0  0  0  0  0  0  0  0
  -15.7236  -38.1579  -10.3169 C   0  0  2  0  0  0  0  0  0  0  0  0
  -15.1390  -36.7482  -10.4367 C   0  0  0  0  0  0  0  0  0  0  0  0
  -16.2487  -38.3925   -8.9303 C   0  0  0  0  0  0  0  0  0  0  0  0
  -17.6768  -38.6225   -8.7833 C   0  0  2  0  0  0  0  0  0  0  0  0
  -18.2182  -37.9511   -7.7002 O   0  0  0  0  0  0  0  0  0  0  0  0
  -18.0844  -40.1113   -8.7715 C   0  0  2  0  0  0  0  0  0  0  0  0
  -19.5217  -40.3741   -8.7557 C   0  0  0  0  0  0  0  0  0  0  0  0
  -20.3092  -40.4339   -7.5110 C   0  0  0  0  0  0  0  0  0  0  0  0
  -21.6355  -40.7045   -7.2972 C   0  0  0  0  0  0  0  0  0  0  0  0
  -22.0988  -40.7241   -5.9814 C   0  0  0  0  0  0  0  0  0  0  0  0
  -21.2184  -40.4653   -4.9228 C   0  0  0  0  0  0  0  0  0  0  0  0
  -19.8930  -40.1898   -5.0993 C   0  0  0  0  0  0  0  0  0  0  0  0
  -19.4699  -40.1823   -6.4020 C   0  0  0  0  0  0  0  0  0  0  0  0
  -23.3775  -40.9786   -5.5275 O   0  0  0  0  0  0  0  0  0  0  0  0
  -24.2726  -42.0361   -5.5648 C   0  0  0  0  0  0  0  0  0  0  0  0
  -23.9186  -43.0228   -6.6190 C   0  0  0  0  0  0  0  0  0  0  0  0
  -22.6796  -43.8364   -6.3095 C   0  0  0  0  0  0  0  0  0  0  0  0
  -22.1745  -44.5945   -7.4820 C   0  0  0  0  0  0  0  0  0  0  0  0
  -20.8531  -44.1296   -8.0422 C   0  0  0  0  0  0  0  0  0  0  0  0
  -19.7963  -44.0197   -7.0152 C   0  0  0  0  0  0  0  0  0  0  0  0
  -20.0803  -44.5705   -5.8887 O   0  0  0  0  0  0  0  0  0  0  0  0
  -18.5691  -43.3766   -7.2095 N   0  0  0  0  0  0  0  0  0  0  0  0
  -17.6494  -43.4884   -8.3010 C   0  0  1  0  0  0  0  0  0  0  0  0
  -18.1950  -43.9513   -9.6069 C   0  0  0  0  0  0  0  0  0  0  0  0
  -16.7544  -42.3023   -8.3969 C   0  0  0  0  0  0  0  0  0  0  0  0
  -15.5174  -42.6479   -8.6629 O   0  0  0  0  0  0  0  0  0  0  0  0
  -17.0920  -40.9597   -8.2388 N   0  0  0  0  0  0  0  0  0  0  0  0
  1  2  1  0
  2  3  1  0
  3  4  1  0
  4  5  1  0
  5  6  1  0
  6  7  2  0
  6  8  1  0
  8  9  1  1
  8 10  1  0
 10 11  1  0
 11 12  1  1
 11 13  1  0
 13 14  1  1
 14 15  1  0
 15 16  1  0
 16 17  2  0
 17 18  1  0
 18 19  2  0
 19 20  1  0
 17 21  1  0
 21 22  1  0
 22 23  1  0
 23 24  1  0
 24 25  1  0
 25 26  1  0
 26 27  1  0
 27 28  2  0
 27 29  1  0
 29 30  1  0
 30 31  1  6
 30 32  1  0
 32 33  2  0
 32 34  1  0
 20 15  2  0
 34 13  1  0
M  END
$$$$
