
     RDKit          3D

 34 35  0  0  0  0  0  0  0  0999 V2000
  -12.0358  -43.4568  -11.9057 C   0  0  0  0  0  0  0  0  0  0  0  0
  -12.0801  -42.0175  -12.3281 C   0  0  0  0  0  0  0  0  0  0  0  0
  -13.4860  -41.4743  -12.3317 C   0  0  0  0  0  0  0  0  0  0  0  0
  -13.5611  -40.0377  -12.7598 C   0  0  0  0  0  0  0  0  0  0  0  0
  -13.6164  -39.1787  -11.6088 N   0  0  0  0  0  0  0  0  0  0  0  0
  -14.8764  -38.7662  -11.0378 C   0  0  0  0  0  0  0  0  0  0  0  0
  -15.8680  -39.0357  -11.7308 O   0  0  0  0  0  0  0  0  0  0  0  0
  -14.8106  -38.0981   -9.7417 C   0  0  2  0  0  0  0  0  0  0  0  0
  -13.3292  -37.8134   -9.4808 C   0  0  0  0  0  0  0  0  0  0  0  0
  -15.4210  -38.8158   -8.5730 C   0  0  0  0  0  0  0  0  0  0  0  0
  -16.8699  -38.7943   -8.4544 C   0  0  2  0  0  0  0  0  0  0  0  0
  -17.3067  -38.0603   -7.3648 O   0  0  0  0  0  0  0  0  0  0  0  0
  -17.5323  -40.1883   -8.4839 C   0  0  2  0  0  0  0  0  0  0  0  0
  -18.9208  -40.2200   -8.9382 C   0  0  0  0  0  0  0  0  0  0  0  0
  -20.0629  -40.0011   -8.0324 C   0  0  0  0  0  0  0  0  0  0  0  0
  -21.4134  -40.0332   -8.2627 C   0  0  0  0  0  0  0  0  0  0  0  0
  -22.2699  -39.8166   -7.1830 C   0  0  0  0  0  0  0  0  0  0  0  0
  -21.7443  -39.5686   -5.9083 C   0  0  0  0  0  0  0  0  0  0  0  0
  -20.4058  -39.5270   -5.6435 C   0  0  0  0  0  0  0  0  0  0  0  0
  -19.5930  -39.7475   -6.7237 C   0  0  0  0  0  0  0  0  0  0  0  0
  -23.6504  -39.8105   -7.1729 O   0  0  0  0  0  0  0  0  0  0  0  0
  -24.6682  -40.7120   -7.4417 C   0  0  0  0  0  0  0  0  0  0  0  0
  -24.1866  -41.8651   -8.2471 C   0  0  0  0  0  0  0  0  0  0  0  0
  -23.2894  -42.8169   -7.4842 C   0  0  0  0  0  0  0  0  0  0  0  0
  -22.5866  -43.7842   -8.3644 C   0  0  0  0  0  0  0  0  0  0  0  0
  -21.0927  -43.6041   -8.4736 C   0  0  0  0  0  0  0  0  0  0  0  0
  -20.4213  -43.5333   -7.1591 C   0  0  0  0  0  0  0  0  0  0  0  0
  -21.1506  -43.8887   -6.1617 O   0  0  0  0  0  0  0  0  0  0  0  0
  -19.0989  -43.1184   -6.9683 N   0  0  0  0  0  0  0  0  0  0  0  0
  -17.9156  -43.5069   -7.6744 C   0  0  1  0  0  0  0  0  0  0  0  0
  -18.0895  -44.0380   -9.0548 C   0  0  0  0  0  0  0  0  0  0  0  0
  -16.8308  -42.4959   -7.5392 C   0  0  0  0  0  0  0  0  0  0  0  0
  -15.6625  -43.0603   -7.3477 O   0  0  0  0  0  0  0  0  0  0  0  0
  -16.9422  -41.1080   -7.5927 N   0  0  0  0  0  0  0  0  0  0  0  0
  1  2  1  0
  2  3  1  0
  3  4  1  0
  4  5  1  0
  5  6  1  0
  6  7  2  0
  6  8  1  0
  8  9  1  1
  8 10  1  0
 10 11  1  0
 11 12  1  1
 11 13  1  0
 13 14  1  1
 14 15  1  0
 15 16  1  0
 16 17  2  0
 17 18  1  0
 18 19  2  0
 19 20  1  0
 17 21  1  0
 21 22  1  0
 22 23  1  0
 23 24  1  0
 24 25  1  0
 25 26  1  0
 26 27  1  0
 27 28  2  0
 27 29  1  0
 29 30  1  0
 30 31  1  6
 30 32  1  0
 32 33  2  0
 32 34  1  0
 20 15  2  0
 34 13  1  0
M  END
$$$$
