
     RDKit          3D

 34 35  0  0  0  0  0  0  0  0999 V2000
  -12.2687  -34.9751  -12.3694 C   0  0  0  0  0  0  0  0  0  0  0  0
  -13.7585  -34.8719  -12.5161 C   0  0  0  0  0  0  0  0  0  0  0  0
  -14.4775  -35.9364  -11.7276 C   0  0  0  0  0  0  0  0  0  0  0  0
  -13.7691  -37.2595  -11.7423 C   0  0  0  0  0  0  0  0  0  0  0  0
  -13.4679  -37.6766  -10.4003 N   0  0  0  0  0  0  0  0  0  0  0  0
  -14.1560  -38.7865   -9.7852 C   0  0  0  0  0  0  0  0  0  0  0  0
  -14.9897  -39.3428  -10.5144 O   0  0  0  0  0  0  0  0  0  0  0  0
  -13.7812  -39.0966   -8.4089 C   0  0  2  0  0  0  0  0  0  0  0  0
  -12.7397  -40.2156   -8.4901 C   0  0  0  0  0  0  0  0  0  0  0  0
  -14.8889  -39.4773   -7.4700 C   0  0  0  0  0  0  0  0  0  0  0  0
  -16.2526  -39.2096   -7.8971 C   0  0  2  0  0  0  0  0  0  0  0  0
  -16.8867  -38.2683   -7.1041 O   0  0  0  0  0  0  0  0  0  0  0  0
  -17.1268  -40.4707   -8.0651 C   0  0  2  0  0  0  0  0  0  0  0  0
  -18.3017  -40.3174   -8.9203 C   0  0  0  0  0  0  0  0  0  0  0  0
  -19.5965  -39.8235   -8.4179 C   0  0  0  0  0  0  0  0  0  0  0  0
  -20.8013  -39.6546   -9.0484 C   0  0  0  0  0  0  0  0  0  0  0  0
  -21.8797  -39.1928   -8.2933 C   0  0  0  0  0  0  0  0  0  0  0  0
  -21.7133  -38.9095   -6.9314 C   0  0  0  0  0  0  0  0  0  0  0  0
  -20.5280  -39.0637   -6.2721 C   0  0  0  0  0  0  0  0  0  0  0  0
  -19.4912  -39.5221   -7.0410 C   0  0  0  0  0  0  0  0  0  0  0  0
  -23.1759  -38.9575   -8.7061 O   0  0  0  0  0  0  0  0  0  0  0  0
  -24.2208  -39.7004   -9.2325 C   0  0  0  0  0  0  0  0  0  0  0  0
  -23.7501  -40.9916   -9.7992 C   0  0  0  0  0  0  0  0  0  0  0  0
  -23.3108  -41.9980   -8.7566 C   0  0  0  0  0  0  0  0  0  0  0  0
  -22.5759  -43.1511   -9.3353 C   0  0  0  0  0  0  0  0  0  0  0  0
  -21.1094  -43.2323   -8.9905 C   0  0  0  0  0  0  0  0  0  0  0  0
  -20.8512  -43.1430   -7.5382 C   0  0  0  0  0  0  0  0  0  0  0  0
  -21.8936  -43.2718   -6.7967 O   0  0  0  0  0  0  0  0  0  0  0  0
  -19.5893  -42.9356   -6.9710 N   0  0  0  0  0  0  0  0  0  0  0  0
  -18.3461  -43.5829   -7.2632 C   0  0  1  0  0  0  0  0  0  0  0  0
  -18.2050  -44.2126   -8.6053 C   0  0  0  0  0  0  0  0  0  0  0  0
  -17.1788  -42.7569   -6.8483 C   0  0  0  0  0  0  0  0  0  0  0  0
  -16.2453  -43.4849   -6.2836 O   0  0  0  0  0  0  0  0  0  0  0  0
  -17.0070  -41.3820   -6.9957 N   0  0  0  0  0  0  0  0  0  0  0  0
  1  2  1  0
  2  3  1  0
  3  4  1  0
  4  5  1  0
  5  6  1  0
  6  7  2  0
  6  8  1  0
  8  9  1  6
  8 10  1  0
 10 11  1  0
 11 12  1  1
 11 13  1  0
 13 14  1  1
 14 15  1  0
 15 16  1  0
 16 17  2  0
 17 18  1  0
 18 19  2  0
 19 20  1  0
 17 21  1  0
 21 22  1  0
 22 23  1  0
 23 24  1  0
 24 25  1  0
 25 26  1  0
 26 27  1  0
 27 28  2  0
 27 29  1  0
 29 30  1  0
 30 31  1  6
 30 32  1  0
 32 33  2  0
 32 34  1  0
 20 15  2  0
 34 13  1  0
M  END
$$$$
