
     RDKit          3D

 34 35  0  0  0  0  0  0  0  0999 V2000
  -17.7332  -36.0222  -13.3787 C   0  0  0  0  0  0  0  0  0  0  0  0
  -16.2819  -35.6772  -13.5421 C   0  0  0  0  0  0  0  0  0  0  0  0
  -15.4988  -35.9218  -12.2777 C   0  0  0  0  0  0  0  0  0  0  0  0
  -15.7497  -37.2765  -11.6824 C   0  0  0  0  0  0  0  0  0  0  0  0
  -14.9581  -37.4520  -10.4957 N   0  0  0  0  0  0  0  0  0  0  0  0
  -14.9531  -38.7014   -9.7728 C   0  0  0  0  0  0  0  0  0  0  0  0
  -15.5678  -39.6214  -10.3312 O   0  0  0  0  0  0  0  0  0  0  0  0
  -14.2353  -38.7097   -8.5017 C   0  0  2  0  0  0  0  0  0  0  0  0
  -12.9468  -39.5006   -8.7421 C   0  0  0  0  0  0  0  0  0  0  0  0
  -14.9683  -39.2502   -7.3084 C   0  0  0  0  0  0  0  0  0  0  0  0
  -16.4211  -39.1989   -7.3332 C   0  0  2  0  0  0  0  0  0  0  0  0
  -16.9568  -38.6491   -6.1809 O   0  0  0  0  0  0  0  0  0  0  0  0
  -17.1004  -40.5429   -7.6725 C   0  0  2  0  0  0  0  0  0  0  0  0
  -18.4107  -40.4463   -8.3119 C   0  0  0  0  0  0  0  0  0  0  0  0
  -19.6651  -40.3212   -7.5479 C   0  0  0  0  0  0  0  0  0  0  0  0
  -20.9697  -40.2610   -7.9631 C   0  0  0  0  0  0  0  0  0  0  0  0
  -21.9662  -40.1767   -6.9903 C   0  0  0  0  0  0  0  0  0  0  0  0
  -21.6218  -40.1493   -5.6326 C   0  0  0  0  0  0  0  0  0  0  0  0
  -20.3337  -40.2049   -5.1838 C   0  0  0  0  0  0  0  0  0  0  0  0
  -19.3806  -40.2911   -6.1637 C   0  0  0  0  0  0  0  0  0  0  0  0
  -23.3337  -40.1143   -7.1685 O   0  0  0  0  0  0  0  0  0  0  0  0
  -24.3210  -40.9205   -7.7129 C   0  0  0  0  0  0  0  0  0  0  0  0
  -23.7532  -41.9556   -8.6163 C   0  0  0  0  0  0  0  0  0  0  0  0
  -22.9925  -43.0499   -7.8975 C   0  0  0  0  0  0  0  0  0  0  0  0
  -22.1915  -43.8995   -8.8146 C   0  0  0  0  0  0  0  0  0  0  0  0
  -20.6939  -43.7675   -8.6885 C   0  0  0  0  0  0  0  0  0  0  0  0
  -20.2144  -43.9273   -7.2998 C   0  0  0  0  0  0  0  0  0  0  0  0
  -21.0847  -44.4006   -6.4803 O   0  0  0  0  0  0  0  0  0  0  0  0
  -18.9244  -43.6024   -6.8667 N   0  0  0  0  0  0  0  0  0  0  0  0
  -17.6609  -43.9273   -7.4565 C   0  0  1  0  0  0  0  0  0  0  0  0
  -17.6479  -44.2327   -8.9140 C   0  0  0  0  0  0  0  0  0  0  0  0
  -16.5863  -42.9954   -7.0163 C   0  0  0  0  0  0  0  0  0  0  0  0
  -15.4684  -43.6309   -6.7581 O   0  0  0  0  0  0  0  0  0  0  0  0
  -16.6611  -41.6122   -6.8651 N   0  0  0  0  0  0  0  0  0  0  0  0
  1  2  1  0
  2  3  1  0
  3  4  1  0
  4  5  1  0
  5  6  1  0
  6  7  2  0
  6  8  1  0
  8  9  1  6
  8 10  1  0
 10 11  1  0
 11 12  1  1
 11 13  1  0
 13 14  1  1
 14 15  1  0
 15 16  1  0
 16 17  2  0
 17 18  1  0
 18 19  2  0
 19 20  1  0
 17 21  1  0
 21 22  1  0
 22 23  1  0
 23 24  1  0
 24 25  1  0
 25 26  1  0
 26 27  1  0
 27 28  2  0
 27 29  1  0
 29 30  1  0
 30 31  1  6
 30 32  1  0
 32 33  2  0
 32 34  1  0
 20 15  2  0
 34 13  1  0
M  END
$$$$
