
     RDKit          3D

 34 35  0  0  0  0  0  0  0  0999 V2000
  -17.5570  -37.0243  -13.3572 C   0  0  0  0  0  0  0  0  0  0  0  0
  -17.4996  -36.2841  -12.0531 C   0  0  0  0  0  0  0  0  0  0  0  0
  -16.2096  -35.5208  -11.8946 C   0  0  0  0  0  0  0  0  0  0  0  0
  -14.9926  -36.3926  -12.0024 C   0  0  0  0  0  0  0  0  0  0  0  0
  -14.6409  -36.9163  -10.7111 N   0  0  0  0  0  0  0  0  0  0  0  0
  -14.8520  -38.3054  -10.3798 C   0  0  0  0  0  0  0  0  0  0  0  0
  -15.5340  -38.9327  -11.2029 O   0  0  0  0  0  0  0  0  0  0  0  0
  -14.2423  -38.7736   -9.1388 C   0  0  2  0  0  0  0  0  0  0  0  0
  -12.9315  -39.4571   -9.5364 C   0  0  0  0  0  0  0  0  0  0  0  0
  -15.0673  -39.6824   -8.2746 C   0  0  0  0  0  0  0  0  0  0  0  0
  -16.4887  -39.3968   -8.1651 C   0  0  2  0  0  0  0  0  0  0  0  0
  -16.8027  -38.6720   -7.0280 O   0  0  0  0  0  0  0  0  0  0  0  0
  -17.3997  -40.6356   -8.3007 C   0  0  2  0  0  0  0  0  0  0  0  0
  -18.6927  -40.4036   -8.9407 C   0  0  0  0  0  0  0  0  0  0  0  0
  -19.8827  -39.9526   -8.1969 C   0  0  0  0  0  0  0  0  0  0  0  0
  -21.1694  -39.7249   -8.6098 C   0  0  0  0  0  0  0  0  0  0  0  0
  -22.1062  -39.3290   -7.6548 C   0  0  0  0  0  0  0  0  0  0  0  0
  -21.7209  -39.1682   -6.3175 C   0  0  0  0  0  0  0  0  0  0  0  0
  -20.4487  -39.3837   -5.8719 C   0  0  0  0  0  0  0  0  0  0  0  0
  -19.5551  -39.7749   -6.8335 C   0  0  0  0  0  0  0  0  0  0  0  0
  -23.4473  -39.0542   -7.8333 O   0  0  0  0  0  0  0  0  0  0  0  0
  -24.5750  -39.7445   -8.2489 C   0  0  0  0  0  0  0  0  0  0  0  0
  -24.2222  -40.9816   -8.9940 C   0  0  0  0  0  0  0  0  0  0  0  0
  -23.6401  -42.0778   -8.1267 C   0  0  0  0  0  0  0  0  0  0  0  0
  -23.0261  -43.1770   -8.9136 C   0  0  0  0  0  0  0  0  0  0  0  0
  -21.5250  -43.2927   -8.8157 C   0  0  0  0  0  0  0  0  0  0  0  0
  -21.0381  -43.3335   -7.4211 C   0  0  0  0  0  0  0  0  0  0  0  0
  -21.9516  -43.5247   -6.5368 O   0  0  0  0  0  0  0  0  0  0  0  0
  -19.6988  -43.1809   -7.0467 N   0  0  0  0  0  0  0  0  0  0  0  0
  -18.5289  -43.8032   -7.5890 C   0  0  1  0  0  0  0  0  0  0  0  0
  -18.6133  -44.3116   -8.9862 C   0  0  0  0  0  0  0  0  0  0  0  0
  -17.2967  -43.0206   -7.2954 C   0  0  0  0  0  0  0  0  0  0  0  0
  -16.2978  -43.7985   -6.9526 O   0  0  0  0  0  0  0  0  0  0  0  0
  -17.1271  -41.6385   -7.3478 N   0  0  0  0  0  0  0  0  0  0  0  0
  1  2  1  0
  2  3  1  0
  3  4  1  0
  4  5  1  0
  5  6  1  0
  6  7  2  0
  6  8  1  0
  8  9  1  6
  8 10  1  0
 10 11  1  0
 11 12  1  1
 11 13  1  0
 13 14  1  1
 14 15  1  0
 15 16  1  0
 16 17  2  0
 17 18  1  0
 18 19  2  0
 19 20  1  0
 17 21  1  0
 21 22  1  0
 22 23  1  0
 23 24  1  0
 24 25  1  0
 25 26  1  0
 26 27  1  0
 27 28  2  0
 27 29  1  0
 29 30  1  0
 30 31  1  6
 30 32  1  0
 32 33  2  0
 32 34  1  0
 20 15  2  0
 34 13  1  0
M  END
$$$$
