
     RDKit          3D

 34 35  0  0  0  0  0  0  0  0999 V2000
  -11.4197  -36.7269  -13.7750 C   0  0  0  0  0  0  0  0  0  0  0  0
  -11.7598  -36.0619  -12.4735 C   0  0  0  0  0  0  0  0  0  0  0  0
  -13.2491  -35.9643  -12.2628 C   0  0  0  0  0  0  0  0  0  0  0  0
  -13.7269  -36.7381  -11.0689 C   0  0  0  0  0  0  0  0  0  0  0  0
  -13.9643  -38.1093  -11.4282 N   0  0  0  0  0  0  0  0  0  0  0  0
  -14.6198  -39.0218  -10.5218 C   0  0  0  0  0  0  0  0  0  0  0  0
  -15.6614  -39.5271  -10.9645 O   0  0  0  0  0  0  0  0  0  0  0  0
  -13.9753  -39.2211   -9.2273 C   0  0  2  0  0  0  0  0  0  0  0  0
  -13.5640  -40.6947   -9.1755 C   0  0  0  0  0  0  0  0  0  0  0  0
  -14.7691  -38.8544   -8.0071 C   0  0  0  0  0  0  0  0  0  0  0  0
  -16.2115  -38.7439   -8.1527 C   0  0  2  0  0  0  0  0  0  0  0  0
  -16.7975  -38.0109   -7.1348 O   0  0  0  0  0  0  0  0  0  0  0  0
  -16.9367  -40.0920   -8.3520 C   0  0  2  0  0  0  0  0  0  0  0  0
  -18.1527  -40.0432   -9.1608 C   0  0  0  0  0  0  0  0  0  0  0  0
  -19.4769  -39.7295   -8.5944 C   0  0  0  0  0  0  0  0  0  0  0  0
  -20.7161  -39.6785   -9.1772 C   0  0  0  0  0  0  0  0  0  0  0  0
  -21.8123  -39.3817   -8.3669 C   0  0  0  0  0  0  0  0  0  0  0  0
  -21.6295  -39.1396   -6.9992 C   0  0  0  0  0  0  0  0  0  0  0  0
  -20.4103  -39.1795   -6.3863 C   0  0  0  0  0  0  0  0  0  0  0  0
  -19.3563  -39.4773   -7.2088 C   0  0  0  0  0  0  0  0  0  0  0  0
  -23.1417  -39.2851   -8.7263 O   0  0  0  0  0  0  0  0  0  0  0  0
  -24.1109  -40.1241   -9.2534 C   0  0  0  0  0  0  0  0  0  0  0  0
  -23.5130  -41.3242   -9.8954 C   0  0  0  0  0  0  0  0  0  0  0  0
  -22.9195  -42.3150   -8.9161 C   0  0  0  0  0  0  0  0  0  0  0  0
  -22.0761  -43.3461   -9.5720 C   0  0  0  0  0  0  0  0  0  0  0  0
  -20.5984  -43.2665   -9.2786 C   0  0  0  0  0  0  0  0  0  0  0  0
  -20.2982  -43.2098   -7.8328 C   0  0  0  0  0  0  0  0  0  0  0  0
  -21.2897  -43.4939   -7.0650 O   0  0  0  0  0  0  0  0  0  0  0  0
  -19.0491  -42.8780   -7.2971 N   0  0  0  0  0  0  0  0  0  0  0  0
  -17.7502  -43.3591   -7.6594 C   0  0  1  0  0  0  0  0  0  0  0  0
  -17.5863  -43.9090   -9.0336 C   0  0  0  0  0  0  0  0  0  0  0  0
  -16.6735  -42.4183   -7.2436 C   0  0  0  0  0  0  0  0  0  0  0  0
  -15.6403  -43.0534   -6.7442 O   0  0  0  0  0  0  0  0  0  0  0  0
  -16.6705  -41.0277   -7.3313 N   0  0  0  0  0  0  0  0  0  0  0  0
  1  2  1  0
  2  3  1  0
  3  4  1  0
  4  5  1  0
  5  6  1  0
  6  7  2  0
  6  8  1  0
  8  9  1  1
  8 10  1  0
 10 11  1  0
 11 12  1  1
 11 13  1  0
 13 14  1  1
 14 15  1  0
 15 16  1  0
 16 17  2  0
 17 18  1  0
 18 19  2  0
 19 20  1  0
 17 21  1  0
 21 22  1  0
 22 23  1  0
 23 24  1  0
 24 25  1  0
 25 26  1  0
 26 27  1  0
 27 28  2  0
 27 29  1  0
 29 30  1  0
 30 31  1  6
 30 32  1  0
 32 33  2  0
 32 34  1  0
 20 15  2  0
 34 13  1  0
M  END
$$$$
