
     RDKit          3D

 34 35  0  0  0  0  0  0  0  0999 V2000
  -15.6111  -36.7548  -15.1104 C   0  0  0  0  0  0  0  0  0  0  0  0
  -14.9316  -37.7284  -14.1926 C   0  0  0  0  0  0  0  0  0  0  0  0
  -14.9418  -37.2552  -12.7616 C   0  0  0  0  0  0  0  0  0  0  0  0
  -13.6162  -37.4203  -12.0774 C   0  0  0  0  0  0  0  0  0  0  0  0
  -13.7870  -37.3942  -10.6506 N   0  0  0  0  0  0  0  0  0  0  0  0
  -14.1960  -38.5703   -9.9203 C   0  0  0  0  0  0  0  0  0  0  0  0
  -14.5554  -39.5189  -10.6325 O   0  0  0  0  0  0  0  0  0  0  0  0
  -14.1312  -38.4822   -8.4647 C   0  0  2  0  0  0  0  0  0  0  0  0
  -12.7104  -38.8960   -8.0729 C   0  0  0  0  0  0  0  0  0  0  0  0
  -15.1420  -39.2750   -7.6881 C   0  0  0  0  0  0  0  0  0  0  0  0
  -16.5378  -39.1442   -8.0737 C   0  0  2  0  0  0  0  0  0  0  0  0
  -17.2155  -38.2023   -7.3184 O   0  0  0  0  0  0  0  0  0  0  0  0
  -17.3134  -40.4780   -8.1207 C   0  0  2  0  0  0  0  0  0  0  0  0
  -18.6940  -40.3913   -8.5916 C   0  0  0  0  0  0  0  0  0  0  0  0
  -19.8250  -40.0834   -7.6979 C   0  0  0  0  0  0  0  0  0  0  0  0
  -21.1706  -40.0015   -7.9444 C   0  0  0  0  0  0  0  0  0  0  0  0
  -22.0194  -39.7207   -6.8734 C   0  0  0  0  0  0  0  0  0  0  0  0
  -21.4908  -39.5248   -5.5909 C   0  0  0  0  0  0  0  0  0  0  0  0
  -20.1568  -39.5964   -5.3099 C   0  0  0  0  0  0  0  0  0  0  0  0
  -19.3519  -39.8774   -6.3820 C   0  0  0  0  0  0  0  0  0  0  0  0
  -23.3946  -39.5996   -6.8796 O   0  0  0  0  0  0  0  0  0  0  0  0
  -24.4805  -40.4116   -7.1667 C   0  0  0  0  0  0  0  0  0  0  0  0
  -24.0866  -41.5961   -7.9742 C   0  0  0  0  0  0  0  0  0  0  0  0
  -23.2812  -42.6237   -7.2073 C   0  0  0  0  0  0  0  0  0  0  0  0
  -22.6505  -43.6411   -8.0858 C   0  0  0  0  0  0  0  0  0  0  0  0
  -21.1456  -43.5854   -8.1761 C   0  0  0  0  0  0  0  0  0  0  0  0
  -20.4869  -43.5785   -6.8533 C   0  0  0  0  0  0  0  0  0  0  0  0
  -21.2556  -43.8778   -5.8670 O   0  0  0  0  0  0  0  0  0  0  0  0
  -19.1371  -43.2763   -6.6439 N   0  0  0  0  0  0  0  0  0  0  0  0
  -17.9815  -43.7578   -7.3386 C   0  0  1  0  0  0  0  0  0  0  0  0
  -18.1819  -44.2645   -8.7246 C   0  0  0  0  0  0  0  0  0  0  0  0
  -16.8182  -42.8415   -7.1836 C   0  0  0  0  0  0  0  0  0  0  0  0
  -15.7033  -43.5024   -6.9822 O   0  0  0  0  0  0  0  0  0  0  0  0
  -16.8130  -41.4488   -7.2289 N   0  0  0  0  0  0  0  0  0  0  0  0
  1  2  1  0
  2  3  1  0
  3  4  1  0
  4  5  1  0
  5  6  1  0
  6  7  2  0
  6  8  1  0
  8  9  1  1
  8 10  1  0
 10 11  1  0
 11 12  1  1
 11 13  1  0
 13 14  1  1
 14 15  1  0
 15 16  1  0
 16 17  2  0
 17 18  1  0
 18 19  2  0
 19 20  1  0
 17 21  1  0
 21 22  1  0
 22 23  1  0
 23 24  1  0
 24 25  1  0
 25 26  1  0
 26 27  1  0
 27 28  2  0
 27 29  1  0
 29 30  1  0
 30 31  1  6
 30 32  1  0
 32 33  2  0
 32 34  1  0
 20 15  2  0
 34 13  1  0
M  END
$$$$
