
     RDKit          3D

 34 35  0  0  0  0  0  0  0  0999 V2000
  -18.6276  -35.5069  -12.3074 C   0  0  0  0  0  0  0  0  0  0  0  0
  -18.2650  -36.4590  -13.4092 C   0  0  0  0  0  0  0  0  0  0  0  0
  -17.3280  -37.5399  -12.9343 C   0  0  0  0  0  0  0  0  0  0  0  0
  -16.9265  -37.3814  -11.4969 C   0  0  0  0  0  0  0  0  0  0  0  0
  -15.6211  -37.9426  -11.2810 N   0  0  0  0  0  0  0  0  0  0  0  0
  -15.4363  -39.1335  -10.4864 C   0  0  0  0  0  0  0  0  0  0  0  0
  -16.0974  -40.1116  -10.8640 O   0  0  0  0  0  0  0  0  0  0  0  0
  -14.5099  -39.0239   -9.3637 C   0  0  2  0  0  0  0  0  0  0  0  0
  -13.1636  -39.5521   -9.8657 C   0  0  0  0  0  0  0  0  0  0  0  0
  -14.9008  -39.7114   -8.0878 C   0  0  0  0  0  0  0  0  0  0  0  0
  -16.2752  -39.5609   -7.6380 C   0  0  2  0  0  0  0  0  0  0  0  0
  -16.3646  -39.1188   -6.3290 O   0  0  0  0  0  0  0  0  0  0  0  0
  -17.1591  -40.8063   -7.8629 C   0  0  2  0  0  0  0  0  0  0  0  0
  -18.4644  -40.5551   -8.4699 C   0  0  0  0  0  0  0  0  0  0  0  0
  -19.6558  -40.1930   -7.6811 C   0  0  0  0  0  0  0  0  0  0  0  0
  -20.9520  -39.9639   -8.0621 C   0  0  0  0  0  0  0  0  0  0  0  0
  -21.8866  -39.6674   -7.0696 C   0  0  0  0  0  0  0  0  0  0  0  0
  -21.4897  -39.6041   -5.7275 C   0  0  0  0  0  0  0  0  0  0  0  0
  -20.2078  -39.8240   -5.3129 C   0  0  0  0  0  0  0  0  0  0  0  0
  -19.3166  -40.1163   -6.3111 C   0  0  0  0  0  0  0  0  0  0  0  0
  -23.2355  -39.4113   -7.2127 O   0  0  0  0  0  0  0  0  0  0  0  0
  -24.3519  -40.0931   -7.6709 C   0  0  0  0  0  0  0  0  0  0  0  0
  -23.9794  -41.2585   -8.5155 C   0  0  0  0  0  0  0  0  0  0  0  0
  -23.3624  -42.4059   -7.7438 C   0  0  0  0  0  0  0  0  0  0  0  0
  -22.7324  -43.4243   -8.6216 C   0  0  0  0  0  0  0  0  0  0  0  0
  -21.2281  -43.5116   -8.5478 C   0  0  0  0  0  0  0  0  0  0  0  0
  -20.7242  -43.6513   -7.1656 C   0  0  0  0  0  0  0  0  0  0  0  0
  -21.6228  -43.9337   -6.2905 O   0  0  0  0  0  0  0  0  0  0  0  0
  -19.3845  -43.4971   -6.7933 N   0  0  0  0  0  0  0  0  0  0  0  0
  -18.2070  -44.0464   -7.3947 C   0  0  1  0  0  0  0  0  0  0  0  0
  -18.2959  -44.4443   -8.8270 C   0  0  0  0  0  0  0  0  0  0  0  0
  -16.9898  -43.2605   -7.0516 C   0  0  0  0  0  0  0  0  0  0  0  0
  -15.9695  -44.0391   -6.7816 O   0  0  0  0  0  0  0  0  0  0  0  0
  -16.8526  -41.8749   -6.9956 N   0  0  0  0  0  0  0  0  0  0  0  0
  1  2  1  0
  2  3  1  0
  3  4  1  0
  4  5  1  0
  5  6  1  0
  6  7  2  0
  6  8  1  0
  8  9  1  6
  8 10  1  0
 10 11  1  0
 11 12  1  1
 11 13  1  0
 13 14  1  1
 14 15  1  0
 15 16  1  0
 16 17  2  0
 17 18  1  0
 18 19  2  0
 19 20  1  0
 17 21  1  0
 21 22  1  0
 22 23  1  0
 23 24  1  0
 24 25  1  0
 25 26  1  0
 26 27  1  0
 27 28  2  0
 27 29  1  0
 29 30  1  0
 30 31  1  6
 30 32  1  0
 32 33  2  0
 32 34  1  0
 20 15  2  0
 34 13  1  0
M  END
$$$$
