
     RDKit          3D

 34 35  0  0  0  0  0  0  0  0999 V2000
   -8.8782  -36.6319  -10.7627 C   0  0  0  0  0  0  0  0  0  0  0  0
  -10.3224  -36.2247  -10.7429 C   0  0  0  0  0  0  0  0  0  0  0  0
  -11.2316  -37.3874  -10.4377 C   0  0  0  0  0  0  0  0  0  0  0  0
  -12.6867  -37.0210  -10.4686 C   0  0  0  0  0  0  0  0  0  0  0  0
  -13.4802  -38.1669  -10.8189 N   0  0  0  0  0  0  0  0  0  0  0  0
  -14.9178  -38.0841  -10.9197 C   0  0  0  0  0  0  0  0  0  0  0  0
  -15.3584  -36.9339  -11.0577 O   0  0  0  0  0  0  0  0  0  0  0  0
  -15.6446  -39.3479  -10.8462 C   0  0  2  0  0  0  0  0  0  0  0  0
  -14.9012  -40.3239  -11.7617 C   0  0  0  0  0  0  0  0  0  0  0  0
  -17.1056  -39.3150  -11.1897 C   0  0  0  0  0  0  0  0  0  0  0  0
  -18.0480  -39.1332  -10.0975 C   0  0  2  0  0  0  0  0  0  0  0  0
  -17.5491  -38.3265   -9.0890 O   0  0  0  0  0  0  0  0  0  0  0  0
  -18.6189  -40.4475   -9.5234 C   0  0  2  0  0  0  0  0  0  0  0  0
  -20.0649  -40.4718   -9.3146 C   0  0  0  0  0  0  0  0  0  0  0  0
  -20.7022  -39.9788   -8.0802 C   0  0  0  0  0  0  0  0  0  0  0  0
  -22.0163  -39.9583   -7.6921 C   0  0  0  0  0  0  0  0  0  0  0  0
  -22.3209  -39.4516   -6.4284 C   0  0  0  0  0  0  0  0  0  0  0  0
  -21.2983  -38.9761   -5.5972 C   0  0  0  0  0  0  0  0  0  0  0  0
  -19.9801  -38.9791   -5.9522 C   0  0  0  0  0  0  0  0  0  0  0  0
  -19.7150  -39.4863   -7.1966 C   0  0  0  0  0  0  0  0  0  0  0  0
  -23.5580  -39.3401   -5.8259 O   0  0  0  0  0  0  0  0  0  0  0  0
  -24.5663  -40.1994   -5.4187 C   0  0  0  0  0  0  0  0  0  0  0  0
  -24.4538  -41.5311   -6.0698 C   0  0  0  0  0  0  0  0  0  0  0  0
  -23.2882  -42.3616   -5.5754 C   0  0  0  0  0  0  0  0  0  0  0  0
  -23.0145  -43.5451   -6.4292 C   0  0  0  0  0  0  0  0  0  0  0  0
  -21.7238  -43.5050   -7.2092 C   0  0  0  0  0  0  0  0  0  0  0  0
  -20.5479  -43.2045   -6.3662 C   0  0  0  0  0  0  0  0  0  0  0  0
  -20.7585  -43.2821   -5.1001 O   0  0  0  0  0  0  0  0  0  0  0  0
  -19.2867  -42.8586   -6.8630 N   0  0  0  0  0  0  0  0  0  0  0  0
  -18.5205  -43.4770   -7.9024 C   0  0  1  0  0  0  0  0  0  0  0  0
  -19.2653  -44.2772   -8.9137 C   0  0  0  0  0  0  0  0  0  0  0  0
  -17.5133  -42.5447   -8.4799 C   0  0  0  0  0  0  0  0  0  0  0  0
  -16.3639  -43.1409   -8.6889 O   0  0  0  0  0  0  0  0  0  0  0  0
  -17.6743  -41.1962   -8.7917 N   0  0  0  0  0  0  0  0  0  0  0  0
  1  2  1  0
  2  3  1  0
  3  4  1  0
  4  5  1  0
  5  6  1  0
  6  7  2  0
  6  8  1  0
  8  9  1  6
  8 10  1  0
 10 11  1  0
 11 12  1  1
 11 13  1  0
 13 14  1  1
 14 15  1  0
 15 16  1  0
 16 17  2  0
 17 18  1  0
 18 19  2  0
 19 20  1  0
 17 21  1  0
 21 22  1  0
 22 23  1  0
 23 24  1  0
 24 25  1  0
 25 26  1  0
 26 27  1  0
 27 28  2  0
 27 29  1  0
 29 30  1  0
 30 31  1  6
 30 32  1  0
 32 33  2  0
 32 34  1  0
 20 15  2  0
 34 13  1  0
M  END
$$$$
