
     RDKit          3D

 34 35  0  0  0  0  0  0  0  0999 V2000
  -14.1953  -37.3413  -15.3239 C   0  0  0  0  0  0  0  0  0  0  0  0
  -14.5858  -36.3609  -14.2570 C   0  0  0  0  0  0  0  0  0  0  0  0
  -14.6771  -37.0112  -12.9003 C   0  0  0  0  0  0  0  0  0  0  0  0
  -13.4113  -37.7084  -12.4951 C   0  0  0  0  0  0  0  0  0  0  0  0
  -13.2150  -37.5962  -11.0757 N   0  0  0  0  0  0  0  0  0  0  0  0
  -13.9737  -38.3981  -10.1457 C   0  0  0  0  0  0  0  0  0  0  0  0
  -14.5352  -39.3802  -10.6520 O   0  0  0  0  0  0  0  0  0  0  0  0
  -13.9755  -37.9488   -8.7568 C   0  0  2  0  0  0  0  0  0  0  0  0
  -12.5066  -37.8367   -8.3405 C   0  0  0  0  0  0  0  0  0  0  0  0
  -14.7383  -38.7851   -7.7708 C   0  0  0  0  0  0  0  0  0  0  0  0
  -16.1878  -38.6707   -7.7732 C   0  0  2  0  0  0  0  0  0  0  0  0
  -16.6836  -38.1275   -6.6001 O   0  0  0  0  0  0  0  0  0  0  0  0
  -16.9291  -39.9753   -8.1355 C   0  0  2  0  0  0  0  0  0  0  0  0
  -18.0725  -39.8255   -9.0329 C   0  0  0  0  0  0  0  0  0  0  0  0
  -19.4303  -39.5130   -8.5516 C   0  0  0  0  0  0  0  0  0  0  0  0
  -20.6154  -39.3774   -9.2262 C   0  0  0  0  0  0  0  0  0  0  0  0
  -21.7666  -39.1079   -8.4855 C   0  0  0  0  0  0  0  0  0  0  0  0
  -21.6910  -38.9769   -7.0927 C   0  0  0  0  0  0  0  0  0  0  0  0
  -20.5280  -39.1031   -6.3891 C   0  0  0  0  0  0  0  0  0  0  0  0
  -19.4179  -39.3713   -7.1453 C   0  0  0  0  0  0  0  0  0  0  0  0
  -23.0588  -38.9410   -8.9417 O   0  0  0  0  0  0  0  0  0  0  0  0
  -24.0028  -39.7053   -9.6092 C   0  0  0  0  0  0  0  0  0  0  0  0
  -23.3856  -40.8718  -10.2937 C   0  0  0  0  0  0  0  0  0  0  0  0
  -22.9011  -41.9532   -9.3509 C   0  0  0  0  0  0  0  0  0  0  0  0
  -22.0338  -42.9581  -10.0162 C   0  0  0  0  0  0  0  0  0  0  0  0
  -20.5837  -42.9492   -9.5998 C   0  0  0  0  0  0  0  0  0  0  0  0
  -20.4025  -43.0127   -8.1346 C   0  0  0  0  0  0  0  0  0  0  0  0
  -21.4610  -43.3223   -7.4736 O   0  0  0  0  0  0  0  0  0  0  0  0
  -19.1936  -42.7635   -7.4761 N   0  0  0  0  0  0  0  0  0  0  0  0
  -17.8823  -43.2576   -7.7697 C   0  0  1  0  0  0  0  0  0  0  0  0
  -17.6200  -43.7061   -9.1653 C   0  0  0  0  0  0  0  0  0  0  0  0
  -16.8193  -42.3868   -7.1961 C   0  0  0  0  0  0  0  0  0  0  0  0
  -15.8478  -43.0914   -6.6669 O   0  0  0  0  0  0  0  0  0  0  0  0
  -16.7726  -40.9943   -7.1735 N   0  0  0  0  0  0  0  0  0  0  0  0
  1  2  1  0
  2  3  1  0
  3  4  1  0
  4  5  1  0
  5  6  1  0
  6  7  2  0
  6  8  1  0
  8  9  1  1
  8 10  1  0
 10 11  1  0
 11 12  1  1
 11 13  1  0
 13 14  1  1
 14 15  1  0
 15 16  1  0
 16 17  2  0
 17 18  1  0
 18 19  2  0
 19 20  1  0
 17 21  1  0
 21 22  1  0
 22 23  1  0
 23 24  1  0
 24 25  1  0
 25 26  1  0
 26 27  1  0
 27 28  2  0
 27 29  1  0
 29 30  1  0
 30 31  1  6
 30 32  1  0
 32 33  2  0
 32 34  1  0
 20 15  2  0
 34 13  1  0
M  END
$$$$
