
     RDKit          3D

 34 35  0  0  0  0  0  0  0  0999 V2000
  -13.1146  -35.1797  -14.1822 C   0  0  0  0  0  0  0  0  0  0  0  0
  -12.0120  -35.9216  -13.4852 C   0  0  0  0  0  0  0  0  0  0  0  0
  -12.4098  -36.3465  -12.0949 C   0  0  0  0  0  0  0  0  0  0  0  0
  -13.2860  -37.5651  -12.0796 C   0  0  0  0  0  0  0  0  0  0  0  0
  -13.4445  -38.0460  -10.7345 N   0  0  0  0  0  0  0  0  0  0  0  0
  -14.1130  -39.2946  -10.4560 C   0  0  0  0  0  0  0  0  0  0  0  0
  -14.5000  -39.9065  -11.4619 O   0  0  0  0  0  0  0  0  0  0  0  0
  -14.2398  -39.6598   -9.0484 C   0  0  2  0  0  0  0  0  0  0  0  0
  -12.8587  -40.1506   -8.6067 C   0  0  0  0  0  0  0  0  0  0  0  0
  -15.2930  -40.6708   -8.6986 C   0  0  0  0  0  0  0  0  0  0  0  0
  -16.6203  -40.1731   -8.3756 C   0  0  2  0  0  0  0  0  0  0  0  0
  -16.6048  -39.2202   -7.3713 O   0  0  0  0  0  0  0  0  0  0  0  0
  -17.6586  -41.2755   -8.0763 C   0  0  2  0  0  0  0  0  0  0  0  0
  -18.9732  -41.0896   -8.6866 C   0  0  0  0  0  0  0  0  0  0  0  0
  -20.0425  -40.2960   -8.0543 C   0  0  0  0  0  0  0  0  0  0  0  0
  -21.3313  -40.0472   -8.4478 C   0  0  0  0  0  0  0  0  0  0  0  0
  -22.1365  -39.2735   -7.6114 C   0  0  0  0  0  0  0  0  0  0  0  0
  -21.6212  -38.7691   -6.4103 C   0  0  0  0  0  0  0  0  0  0  0  0
  -20.3426  -38.9949   -5.9887 C   0  0  0  0  0  0  0  0  0  0  0  0
  -19.5803  -39.7608   -6.8304 C   0  0  0  0  0  0  0  0  0  0  0  0
  -23.4540  -38.9035   -7.7937 O   0  0  0  0  0  0  0  0  0  0  0  0
  -24.6770  -39.5438   -7.9169 C   0  0  0  0  0  0  0  0  0  0  0  0
  -24.5161  -40.9802   -8.2648 C   0  0  0  0  0  0  0  0  0  0  0  0
  -23.9722  -41.8300   -7.1357 C   0  0  0  0  0  0  0  0  0  0  0  0
  -23.5422  -43.1800   -7.5796 C   0  0  0  0  0  0  0  0  0  0  0  0
  -22.0574  -43.4429   -7.5313 C   0  0  0  0  0  0  0  0  0  0  0  0
  -21.4563  -43.1246   -6.2194 C   0  0  0  0  0  0  0  0  0  0  0  0
  -22.3031  -42.9307   -5.2715 O   0  0  0  0  0  0  0  0  0  0  0  0
  -20.0808  -43.0313   -5.9818 N   0  0  0  0  0  0  0  0  0  0  0  0
  -19.0310  -43.9245   -6.3690 C   0  0  1  0  0  0  0  0  0  0  0  0
  -19.2880  -44.8124   -7.5366 C   0  0  0  0  0  0  0  0  0  0  0  0
  -17.7058  -43.2459   -6.3956 C   0  0  0  0  0  0  0  0  0  0  0  0
  -16.7633  -44.0015   -5.8848 O   0  0  0  0  0  0  0  0  0  0  0  0
  -17.4047  -41.9738   -6.8779 N   0  0  0  0  0  0  0  0  0  0  0  0
  1  2  1  0
  2  3  1  0
  3  4  1  0
  4  5  1  0
  5  6  1  0
  6  7  2  0
  6  8  1  0
  8  9  1  6
  8 10  1  0
 10 11  1  0
 11 12  1  1
 11 13  1  0
 13 14  1  1
 14 15  1  0
 15 16  1  0
 16 17  2  0
 17 18  1  0
 18 19  2  0
 19 20  1  0
 17 21  1  0
 21 22  1  0
 22 23  1  0
 23 24  1  0
 24 25  1  0
 25 26  1  0
 26 27  1  0
 27 28  2  0
 27 29  1  0
 29 30  1  0
 30 31  1  6
 30 32  1  0
 32 33  2  0
 32 34  1  0
 20 15  2  0
 34 13  1  0
M  END
$$$$
