
     RDKit          3D

 34 35  0  0  0  0  0  0  0  0999 V2000
  -11.0721  -34.8537  -12.6285 C   0  0  0  0  0  0  0  0  0  0  0  0
  -11.6848  -34.6832  -11.2693 C   0  0  0  0  0  0  0  0  0  0  0  0
  -13.1810  -34.8630  -11.2991 C   0  0  0  0  0  0  0  0  0  0  0  0
  -13.6037  -36.1888  -11.8615 C   0  0  0  0  0  0  0  0  0  0  0  0
  -14.3291  -36.9391  -10.8733 N   0  0  0  0  0  0  0  0  0  0  0  0
  -14.2663  -38.3805  -10.8275 C   0  0  0  0  0  0  0  0  0  0  0  0
  -13.8290  -38.9094  -11.8596 O   0  0  0  0  0  0  0  0  0  0  0  0
  -14.7199  -39.0080   -9.5901 C   0  0  2  0  0  0  0  0  0  0  0  0
  -13.5024  -39.7259   -9.0020 C   0  0  0  0  0  0  0  0  0  0  0  0
  -15.8860  -39.9481   -9.6902 C   0  0  0  0  0  0  0  0  0  0  0  0
  -17.0465  -39.6689   -8.8601 C   0  0  2  0  0  0  0  0  0  0  0  0
  -16.7300  -38.9423   -7.7248 O   0  0  0  0  0  0  0  0  0  0  0  0
  -17.8891  -40.9124   -8.5041 C   0  0  2  0  0  0  0  0  0  0  0  0
  -19.3133  -40.8234   -8.8185 C   0  0  0  0  0  0  0  0  0  0  0  0
  -20.2996  -40.2325   -7.8961 C   0  0  0  0  0  0  0  0  0  0  0  0
  -21.6599  -40.1005   -7.9968 C   0  0  0  0  0  0  0  0  0  0  0  0
  -22.3449  -39.5186   -6.9297 C   0  0  0  0  0  0  0  0  0  0  0  0
  -21.6428  -39.0822   -5.7987 C   0  0  0  0  0  0  0  0  0  0  0  0
  -20.2889  -39.1956   -5.6658 C   0  0  0  0  0  0  0  0  0  0  0  0
  -19.6475  -39.7743   -6.7287 C   0  0  0  0  0  0  0  0  0  0  0  0
  -23.7009  -39.2921   -6.8042 O   0  0  0  0  0  0  0  0  0  0  0  0
  -24.8554  -40.0580   -6.7656 C   0  0  0  0  0  0  0  0  0  0  0  0
  -24.6325  -41.4214   -7.3146 C   0  0  0  0  0  0  0  0  0  0  0  0
  -23.7871  -42.3115   -6.4281 C   0  0  0  0  0  0  0  0  0  0  0  0
  -23.3305  -43.5477   -7.1121 C   0  0  0  0  0  0  0  0  0  0  0  0
  -21.8496  -43.6346   -7.3872 C   0  0  0  0  0  0  0  0  0  0  0  0
  -21.0232  -43.3832   -6.1882 C   0  0  0  0  0  0  0  0  0  0  0  0
  -21.6697  -43.3902   -5.0769 O   0  0  0  0  0  0  0  0  0  0  0  0
  -19.6438  -43.1509   -6.2135 N   0  0  0  0  0  0  0  0  0  0  0  0
  -18.6160  -43.8677   -6.9061 C   0  0  1  0  0  0  0  0  0  0  0  0
  -19.0227  -44.6554   -8.1027 C   0  0  0  0  0  0  0  0  0  0  0  0
  -17.3968  -43.0364   -7.1054 C   0  0  0  0  0  0  0  0  0  0  0  0
  -16.3006  -43.7223   -6.8864 O   0  0  0  0  0  0  0  0  0  0  0  0
  -17.3262  -41.6946   -7.4747 N   0  0  0  0  0  0  0  0  0  0  0  0
  1  2  1  0
  2  3  1  0
  3  4  1  0
  4  5  1  0
  5  6  1  0
  6  7  2  0
  6  8  1  0
  8  9  1  6
  8 10  1  0
 10 11  1  0
 11 12  1  1
 11 13  1  0
 13 14  1  1
 14 15  1  0
 15 16  1  0
 16 17  2  0
 17 18  1  0
 18 19  2  0
 19 20  1  0
 17 21  1  0
 21 22  1  0
 22 23  1  0
 23 24  1  0
 24 25  1  0
 25 26  1  0
 26 27  1  0
 27 28  2  0
 27 29  1  0
 29 30  1  0
 30 31  1  6
 30 32  1  0
 32 33  2  0
 32 34  1  0
 20 15  2  0
 34 13  1  0
M  END
$$$$
