
     RDKit          3D

 34 35  0  0  0  0  0  0  0  0999 V2000
  -11.3660  -35.4960  -13.0405 C   0  0  0  0  0  0  0  0  0  0  0  0
  -12.3313  -35.5927  -11.8957 C   0  0  0  0  0  0  0  0  0  0  0  0
  -13.7571  -35.3951  -12.3426 C   0  0  0  0  0  0  0  0  0  0  0  0
  -14.7598  -35.7272  -11.2763 C   0  0  0  0  0  0  0  0  0  0  0  0
  -14.2051  -36.6772  -10.3514 N   0  0  0  0  0  0  0  0  0  0  0  0
  -14.4478  -38.0933  -10.4915 C   0  0  0  0  0  0  0  0  0  0  0  0
  -14.7647  -38.4503  -11.6353 O   0  0  0  0  0  0  0  0  0  0  0  0
  -14.2891  -38.8986   -9.2844 C   0  0  2  0  0  0  0  0  0  0  0  0
  -12.8572  -39.4391   -9.3148 C   0  0  0  0  0  0  0  0  0  0  0  0
  -15.2684  -40.0174   -9.0777 C   0  0  0  0  0  0  0  0  0  0  0  0
  -16.5368  -39.6913   -8.4463 C   0  0  2  0  0  0  0  0  0  0  0  0
  -16.3800  -39.1122   -7.1985 O   0  0  0  0  0  0  0  0  0  0  0  0
  -17.5404  -40.8627   -8.3904 C   0  0  2  0  0  0  0  0  0  0  0  0
  -18.8429  -40.6103   -9.0029 C   0  0  0  0  0  0  0  0  0  0  0  0
  -19.9596  -39.9813   -8.2748 C   0  0  0  0  0  0  0  0  0  0  0  0
  -21.2450  -39.7061   -8.6619 C   0  0  0  0  0  0  0  0  0  0  0  0
  -22.1032  -39.1256   -7.7275 C   0  0  0  0  0  0  0  0  0  0  0  0
  -21.6426  -38.8342   -6.4369 C   0  0  0  0  0  0  0  0  0  0  0  0
  -20.3692  -39.0923   -6.0184 C   0  0  0  0  0  0  0  0  0  0  0  0
  -19.5540  -39.6655   -6.9581 C   0  0  0  0  0  0  0  0  0  0  0  0
  -23.4280  -38.7712   -7.8859 O   0  0  0  0  0  0  0  0  0  0  0  0
  -24.6215  -39.4170   -8.1674 C   0  0  0  0  0  0  0  0  0  0  0  0
  -24.3958  -40.7591   -8.7658 C   0  0  0  0  0  0  0  0  0  0  0  0
  -23.8529  -41.7838   -7.7922 C   0  0  0  0  0  0  0  0  0  0  0  0
  -23.3590  -43.0148   -8.4595 C   0  0  0  0  0  0  0  0  0  0  0  0
  -21.8672  -43.2340   -8.4072 C   0  0  0  0  0  0  0  0  0  0  0  0
  -21.3171  -43.1430   -7.0387 C   0  0  0  0  0  0  0  0  0  0  0  0
  -22.1979  -43.1539   -6.1021 O   0  0  0  0  0  0  0  0  0  0  0  0
  -19.9537  -43.0507   -6.7393 N   0  0  0  0  0  0  0  0  0  0  0  0
  -18.8596  -43.8232   -7.2455 C   0  0  1  0  0  0  0  0  0  0  0  0
  -19.0485  -44.4893   -8.5639 C   0  0  0  0  0  0  0  0  0  0  0  0
  -17.5612  -43.1089   -7.1004 C   0  0  0  0  0  0  0  0  0  0  0  0
  -16.6057  -43.9147   -6.7030 O   0  0  0  0  0  0  0  0  0  0  0  0
  -17.2950  -41.7608   -7.3314 N   0  0  0  0  0  0  0  0  0  0  0  0
  1  2  1  0
  2  3  1  0
  3  4  1  0
  4  5  1  0
  5  6  1  0
  6  7  2  0
  6  8  1  0
  8  9  1  6
  8 10  1  0
 10 11  1  0
 11 12  1  1
 11 13  1  0
 13 14  1  1
 14 15  1  0
 15 16  1  0
 16 17  2  0
 17 18  1  0
 18 19  2  0
 19 20  1  0
 17 21  1  0
 21 22  1  0
 22 23  1  0
 23 24  1  0
 24 25  1  0
 25 26  1  0
 26 27  1  0
 27 28  2  0
 27 29  1  0
 29 30  1  0
 30 31  1  6
 30 32  1  0
 32 33  2  0
 32 34  1  0
 20 15  2  0
 34 13  1  0
M  END
$$$$
