
     RDKit          3D

 34 35  0  0  0  0  0  0  0  0999 V2000
  -13.4821  -33.9402  -13.3139 C   0  0  0  0  0  0  0  0  0  0  0  0
  -14.6634  -34.8418  -13.1049 C   0  0  0  0  0  0  0  0  0  0  0  0
  -14.6562  -35.4718  -11.7356 C   0  0  0  0  0  0  0  0  0  0  0  0
  -14.6540  -36.9721  -11.7777 C   0  0  0  0  0  0  0  0  0  0  0  0
  -14.5979  -37.5062  -10.4446 N   0  0  0  0  0  0  0  0  0  0  0  0
  -14.6237  -38.9291  -10.2027 C   0  0  0  0  0  0  0  0  0  0  0  0
  -14.7569  -39.6219  -11.2218 O   0  0  0  0  0  0  0  0  0  0  0  0
  -14.4914  -39.3505   -8.8114 C   0  0  2  0  0  0  0  0  0  0  0  0
  -13.0293  -39.7645   -8.6260 C   0  0  0  0  0  0  0  0  0  0  0  0
  -15.4096  -40.4401   -8.3390 C   0  0  0  0  0  0  0  0  0  0  0  0
  -16.7859  -40.0768   -8.0429 C   0  0  2  0  0  0  0  0  0  0  0  0
  -16.8870  -39.1604   -7.0100 O   0  0  0  0  0  0  0  0  0  0  0  0
  -17.7261  -41.2788   -7.8101 C   0  0  2  0  0  0  0  0  0  0  0  0
  -19.0300  -41.1988   -8.4648 C   0  0  0  0  0  0  0  0  0  0  0  0
  -20.1906  -40.5259   -7.8541 C   0  0  0  0  0  0  0  0  0  0  0  0
  -21.4824  -40.3869   -8.2897 C   0  0  0  0  0  0  0  0  0  0  0  0
  -22.3857  -39.7151   -7.4656 C   0  0  0  0  0  0  0  0  0  0  0  0
  -21.9626  -39.1988   -6.2338 C   0  0  0  0  0  0  0  0  0  0  0  0
  -20.6841  -39.3167   -5.7699 C   0  0  0  0  0  0  0  0  0  0  0  0
  -19.8241  -39.9846   -6.6008 C   0  0  0  0  0  0  0  0  0  0  0  0
  -23.7248  -39.4641   -7.6882 O   0  0  0  0  0  0  0  0  0  0  0  0
  -24.8772  -40.2115   -7.8732 C   0  0  0  0  0  0  0  0  0  0  0  0
  -24.5700  -41.6164   -8.2500 C   0  0  0  0  0  0  0  0  0  0  0  0
  -23.9890  -42.4433   -7.1224 C   0  0  0  0  0  0  0  0  0  0  0  0
  -23.4189  -43.7346   -7.5829 C   0  0  0  0  0  0  0  0  0  0  0  0
  -21.9186  -43.8597   -7.4850 C   0  0  0  0  0  0  0  0  0  0  0  0
  -21.3967  -43.5238   -6.1439 C   0  0  0  0  0  0  0  0  0  0  0  0
  -22.2909  -43.4360   -5.2242 O   0  0  0  0  0  0  0  0  0  0  0  0
  -20.0453  -43.3099   -5.8524 N   0  0  0  0  0  0  0  0  0  0  0  0
  -18.9032  -44.0905   -6.2215 C   0  0  1  0  0  0  0  0  0  0  0  0
  -19.0344  -44.9655   -7.4194 C   0  0  0  0  0  0  0  0  0  0  0  0
  -17.6475  -43.2913   -6.1813 C   0  0  0  0  0  0  0  0  0  0  0  0
  -16.6569  -43.9702   -5.6540 O   0  0  0  0  0  0  0  0  0  0  0  0
  -17.4502  -41.9838   -6.6205 N   0  0  0  0  0  0  0  0  0  0  0  0
  1  2  1  0
  2  3  1  0
  3  4  1  0
  4  5  1  0
  5  6  1  0
  6  7  2  0
  6  8  1  0
  8  9  1  6
  8 10  1  0
 10 11  1  0
 11 12  1  1
 11 13  1  0
 13 14  1  1
 14 15  1  0
 15 16  1  0
 16 17  2  0
 17 18  1  0
 18 19  2  0
 19 20  1  0
 17 21  1  0
 21 22  1  0
 22 23  1  0
 23 24  1  0
 24 25  1  0
 25 26  1  0
 26 27  1  0
 27 28  2  0
 27 29  1  0
 29 30  1  0
 30 31  1  6
 30 32  1  0
 32 33  2  0
 32 34  1  0
 20 15  2  0
 34 13  1  0
M  END
$$$$
