
     RDKit          3D

 34 35  0  0  0  0  0  0  0  0999 V2000
  -12.7481  -39.3256  -15.8953 C   0  0  0  0  0  0  0  0  0  0  0  0
  -12.2805  -38.3249  -14.8795 C   0  0  0  0  0  0  0  0  0  0  0  0
  -13.3710  -37.9590  -13.9055 C   0  0  0  0  0  0  0  0  0  0  0  0
  -13.5964  -39.0056  -12.8535 C   0  0  0  0  0  0  0  0  0  0  0  0
  -14.0510  -38.3947  -11.6346 N   0  0  0  0  0  0  0  0  0  0  0  0
  -14.1331  -39.1434  -10.4031 C   0  0  0  0  0  0  0  0  0  0  0  0
  -13.7390  -40.3155  -10.4864 O   0  0  0  0  0  0  0  0  0  0  0  0
  -14.6613  -38.4277   -9.2457 C   0  0  2  0  0  0  0  0  0  0  0  0
  -13.4854  -37.6500   -8.6492 C   0  0  0  0  0  0  0  0  0  0  0  0
  -15.3386  -39.2489   -8.1873 C   0  0  0  0  0  0  0  0  0  0  0  0
  -16.7787  -39.1070   -8.0468 C   0  0  2  0  0  0  0  0  0  0  0  0
  -17.1382  -38.3913   -6.9174 O   0  0  0  0  0  0  0  0  0  0  0  0
  -17.5610  -40.4350   -8.1324 C   0  0  2  0  0  0  0  0  0  0  0  0
  -18.9571  -40.3217   -8.5488 C   0  0  0  0  0  0  0  0  0  0  0  0
  -20.0544  -40.0561   -7.6010 C   0  0  0  0  0  0  0  0  0  0  0  0
  -21.4075  -39.9589   -7.7949 C   0  0  0  0  0  0  0  0  0  0  0  0
  -22.2166  -39.7299   -6.6817 C   0  0  0  0  0  0  0  0  0  0  0  0
  -21.6419  -39.5995   -5.4107 C   0  0  0  0  0  0  0  0  0  0  0  0
  -20.2991  -39.6882   -5.1815 C   0  0  0  0  0  0  0  0  0  0  0  0
  -19.5339  -39.9172   -6.2942 C   0  0  0  0  0  0  0  0  0  0  0  0
  -23.5906  -39.6055   -6.6328 O   0  0  0  0  0  0  0  0  0  0  0  0
  -24.6894  -40.3996   -6.9210 C   0  0  0  0  0  0  0  0  0  0  0  0
  -24.3293  -41.5431   -7.8000 C   0  0  0  0  0  0  0  0  0  0  0  0
  -23.5014  -42.6097   -7.1146 C   0  0  0  0  0  0  0  0  0  0  0  0
  -22.9065  -43.5834   -8.0646 C   0  0  0  0  0  0  0  0  0  0  0  0
  -21.4055  -43.5267   -8.2057 C   0  0  0  0  0  0  0  0  0  0  0  0
  -20.7002  -43.5874   -6.9085 C   0  0  0  0  0  0  0  0  0  0  0  0
  -21.4346  -43.9339   -5.9116 O   0  0  0  0  0  0  0  0  0  0  0  0
  -19.3426  -43.2992   -6.7327 N   0  0  0  0  0  0  0  0  0  0  0  0
  -18.2144  -43.7482   -7.4914 C   0  0  1  0  0  0  0  0  0  0  0  0
  -18.4660  -44.1845   -8.8928 C   0  0  0  0  0  0  0  0  0  0  0  0
  -17.0425  -42.8435   -7.3325 C   0  0  0  0  0  0  0  0  0  0  0  0
  -15.9239  -43.5162   -7.2042 O   0  0  0  0  0  0  0  0  0  0  0  0
  -17.0333  -41.4503   -7.3085 N   0  0  0  0  0  0  0  0  0  0  0  0
  1  2  1  0
  2  3  1  0
  3  4  1  0
  4  5  1  0
  5  6  1  0
  6  7  2  0
  6  8  1  0
  8  9  1  1
  8 10  1  0
 10 11  1  0
 11 12  1  1
 11 13  1  0
 13 14  1  1
 14 15  1  0
 15 16  1  0
 16 17  2  0
 17 18  1  0
 18 19  2  0
 19 20  1  0
 17 21  1  0
 21 22  1  0
 22 23  1  0
 23 24  1  0
 24 25  1  0
 25 26  1  0
 26 27  1  0
 27 28  2  0
 27 29  1  0
 29 30  1  0
 30 31  1  6
 30 32  1  0
 32 33  2  0
 32 34  1  0
 20 15  2  0
 34 13  1  0
M  END
$$$$
