
     RDKit          3D

 34 35  0  0  0  0  0  0  0  0999 V2000
  -11.0246  -35.7395  -12.4185 C   0  0  0  0  0  0  0  0  0  0  0  0
  -12.1742  -36.6894  -12.2504 C   0  0  0  0  0  0  0  0  0  0  0  0
  -13.3799  -36.2615  -13.0472 C   0  0  0  0  0  0  0  0  0  0  0  0
  -14.5382  -37.2068  -12.9159 C   0  0  0  0  0  0  0  0  0  0  0  0
  -14.0970  -38.4600  -12.3678 N   0  0  0  0  0  0  0  0  0  0  0  0
  -14.7661  -39.0656  -11.2412 C   0  0  0  0  0  0  0  0  0  0  0  0
  -14.2032  -40.0730  -10.7893 O   0  0  0  0  0  0  0  0  0  0  0  0
  -15.9960  -38.4178  -10.7956 C   0  0  2  0  0  0  0  0  0  0  0  0
  -16.2250  -37.2359  -11.7411 C   0  0  0  0  0  0  0  0  0  0  0  0
  -16.0479  -37.9640   -9.3656 C   0  0  0  0  0  0  0  0  0  0  0  0
  -17.2901  -38.1731   -8.6396 C   0  0  2  0  0  0  0  0  0  0  0  0
  -17.2494  -37.6654   -7.3522 O   0  0  0  0  0  0  0  0  0  0  0  0
  -17.7920  -39.6329   -8.6431 C   0  0  2  0  0  0  0  0  0  0  0  0
  -19.2381  -39.8049   -8.7637 C   0  0  0  0  0  0  0  0  0  0  0  0
  -20.1444  -39.7869   -7.6014 C   0  0  0  0  0  0  0  0  0  0  0  0
  -21.4998  -39.9692   -7.5140 C   0  0  0  0  0  0  0  0  0  0  0  0
  -22.0884  -39.9298   -6.2497 C   0  0  0  0  0  0  0  0  0  0  0  0
  -21.2996  -39.7026   -5.1145 C   0  0  0  0  0  0  0  0  0  0  0  0
  -19.9484  -39.5146   -5.1648 C   0  0  0  0  0  0  0  0  0  0  0  0
  -19.4017  -39.5632   -6.4198 C   0  0  0  0  0  0  0  0  0  0  0  0
  -23.4187  -40.0935   -5.9191 O   0  0  0  0  0  0  0  0  0  0  0  0
  -24.3723  -41.0936   -6.0263 C   0  0  0  0  0  0  0  0  0  0  0  0
  -23.9824  -42.1241   -7.0243 C   0  0  0  0  0  0  0  0  0  0  0  0
  -22.8341  -43.0064   -6.5816 C   0  0  0  0  0  0  0  0  0  0  0  0
  -22.2680  -43.8211   -7.6862 C   0  0  0  0  0  0  0  0  0  0  0  0
  -20.8714  -43.4525   -8.1221 C   0  0  0  0  0  0  0  0  0  0  0  0
  -19.9139  -43.3856   -6.9985 C   0  0  0  0  0  0  0  0  0  0  0  0
  -20.3404  -43.8918   -5.8962 O   0  0  0  0  0  0  0  0  0  0  0  0
  -18.6349  -42.8251   -7.0822 N   0  0  0  0  0  0  0  0  0  0  0  0
  -17.6230  -43.0190   -8.0764 C   0  0  1  0  0  0  0  0  0  0  0  0
  -18.0686  -43.4765   -9.4217 C   0  0  0  0  0  0  0  0  0  0  0  0
  -16.6484  -41.8936   -8.1039 C   0  0  0  0  0  0  0  0  0  0  0  0
  -15.4164  -42.3219   -8.2418 O   0  0  0  0  0  0  0  0  0  0  0  0
  -16.9125  -40.5293   -8.0019 N   0  0  0  0  0  0  0  0  0  0  0  0
  1  2  1  0
  2  3  1  0
  3  4  1  0
  4  5  1  0
  5  6  1  0
  6  7  2  0
  6  8  1  0
  8  9  1  6
  8 10  1  0
 10 11  1  0
 11 12  1  1
 11 13  1  0
 13 14  1  1
 14 15  1  0
 15 16  1  0
 16 17  2  0
 17 18  1  0
 18 19  2  0
 19 20  1  0
 17 21  1  0
 21 22  1  0
 22 23  1  0
 23 24  1  0
 24 25  1  0
 25 26  1  0
 26 27  1  0
 27 28  2  0
 27 29  1  0
 29 30  1  0
 30 31  1  6
 30 32  1  0
 32 33  2  0
 32 34  1  0
 20 15  2  0
 34 13  1  0
M  END
$$$$
