
     RDKit          3D

 34 35  0  0  0  0  0  0  0  0999 V2000
  -14.2768  -34.4996  -13.8124 C   0  0  0  0  0  0  0  0  0  0  0  0
  -13.4955  -35.4546  -12.9582 C   0  0  0  0  0  0  0  0  0  0  0  0
  -13.7617  -36.8907  -13.3304 C   0  0  0  0  0  0  0  0  0  0  0  0
  -13.0464  -37.8703  -12.4464 C   0  0  0  0  0  0  0  0  0  0  0  0
  -13.3049  -37.5728  -11.0643 N   0  0  0  0  0  0  0  0  0  0  0  0
  -14.1492  -38.4211  -10.2573 C   0  0  0  0  0  0  0  0  0  0  0  0
  -15.0898  -38.9446  -10.8716 O   0  0  0  0  0  0  0  0  0  0  0  0
  -13.7846  -38.5441   -8.8492 C   0  0  2  0  0  0  0  0  0  0  0  0
  -12.3999  -39.1960   -8.8201 C   0  0  0  0  0  0  0  0  0  0  0  0
  -14.7361  -39.2926   -7.9616 C   0  0  0  0  0  0  0  0  0  0  0  0
  -16.1564  -39.0291   -8.1266 C   0  0  2  0  0  0  0  0  0  0  0  0
  -16.6635  -38.1951   -7.1446 O   0  0  0  0  0  0  0  0  0  0  0  0
  -17.0257  -40.2954   -8.2800 C   0  0  2  0  0  0  0  0  0  0  0  0
  -18.2764  -40.1196   -9.0148 C   0  0  0  0  0  0  0  0  0  0  0  0
  -19.5257  -39.6755   -8.3706 C   0  0  0  0  0  0  0  0  0  0  0  0
  -20.7858  -39.4960   -8.8784 C   0  0  0  0  0  0  0  0  0  0  0  0
  -21.7958  -39.0930   -8.0044 C   0  0  0  0  0  0  0  0  0  0  0  0
  -21.5080  -38.8769   -6.6504 C   0  0  0  0  0  0  0  0  0  0  0  0
  -20.2649  -39.0434   -6.1115 C   0  0  0  0  0  0  0  0  0  0  0  0
  -19.2976  -39.4431   -6.9951 C   0  0  0  0  0  0  0  0  0  0  0  0
  -23.1275  -38.8601   -8.2839 O   0  0  0  0  0  0  0  0  0  0  0  0
  -24.2067  -39.5938   -8.7507 C   0  0  0  0  0  0  0  0  0  0  0  0
  -23.7734  -40.8456   -9.4255 C   0  0  0  0  0  0  0  0  0  0  0  0
  -23.2265  -41.8960   -8.4819 C   0  0  0  0  0  0  0  0  0  0  0  0
  -22.5331  -43.0045   -9.1854 C   0  0  0  0  0  0  0  0  0  0  0  0
  -21.0401  -43.0769   -8.9810 C   0  0  0  0  0  0  0  0  0  0  0  0
  -20.6501  -43.0576   -7.5558 C   0  0  0  0  0  0  0  0  0  0  0  0
  -21.6177  -43.2429   -6.7298 O   0  0  0  0  0  0  0  0  0  0  0  0
  -19.3440  -42.8570   -7.0964 N   0  0  0  0  0  0  0  0  0  0  0  0
  -18.1247  -43.4660   -7.5349 C   0  0  1  0  0  0  0  0  0  0  0  0
  -18.0998  -44.0235   -8.9156 C   0  0  0  0  0  0  0  0  0  0  0  0
  -16.9350  -42.6415   -7.1857 C   0  0  0  0  0  0  0  0  0  0  0  0
  -15.9438  -43.3806   -6.7480 O   0  0  0  0  0  0  0  0  0  0  0  0
  -16.7956  -41.2580   -7.2756 N   0  0  0  0  0  0  0  0  0  0  0  0
  1  2  1  0
  2  3  1  0
  3  4  1  0
  4  5  1  0
  5  6  1  0
  6  7  2  0
  6  8  1  0
  8  9  1  6
  8 10  1  0
 10 11  1  0
 11 12  1  1
 11 13  1  0
 13 14  1  1
 14 15  1  0
 15 16  1  0
 16 17  2  0
 17 18  1  0
 18 19  2  0
 19 20  1  0
 17 21  1  0
 21 22  1  0
 22 23  1  0
 23 24  1  0
 24 25  1  0
 25 26  1  0
 26 27  1  0
 27 28  2  0
 27 29  1  0
 29 30  1  0
 30 31  1  6
 30 32  1  0
 32 33  2  0
 32 34  1  0
 20 15  2  0
 34 13  1  0
M  END
$$$$
