
     RDKit          3D

 34 35  0  0  0  0  0  0  0  0999 V2000
  -15.2763  -36.8299  -14.5722 C   0  0  0  0  0  0  0  0  0  0  0  0
  -14.7221  -37.0223  -13.1909 C   0  0  0  0  0  0  0  0  0  0  0  0
  -15.7189  -36.6430  -12.1259 C   0  0  0  0  0  0  0  0  0  0  0  0
  -15.1738  -36.7785  -10.7341 C   0  0  0  0  0  0  0  0  0  0  0  0
  -14.1960  -37.8306  -10.6839 N   0  0  0  0  0  0  0  0  0  0  0  0
  -14.4284  -39.0381   -9.9277 C   0  0  0  0  0  0  0  0  0  0  0  0
  -15.1475  -39.8714  -10.4974 O   0  0  0  0  0  0  0  0  0  0  0  0
  -13.7940  -39.1107   -8.6150 C   0  0  2  0  0  0  0  0  0  0  0  0
  -12.7008  -40.1766   -8.7256 C   0  0  0  0  0  0  0  0  0  0  0  0
  -14.6862  -39.3934   -7.4414 C   0  0  0  0  0  0  0  0  0  0  0  0
  -16.0966  -39.0669   -7.5764 C   0  0  2  0  0  0  0  0  0  0  0  0
  -16.6372  -38.5396   -6.4160 O   0  0  0  0  0  0  0  0  0  0  0  0
  -16.9683  -40.2197   -8.1188 C   0  0  2  0  0  0  0  0  0  0  0  0
  -18.2628  -39.8282   -8.6721 C   0  0  0  0  0  0  0  0  0  0  0  0
  -19.4717  -39.6725   -7.8432 C   0  0  0  0  0  0  0  0  0  0  0  0
  -20.7615  -39.3581   -8.1828 C   0  0  0  0  0  0  0  0  0  0  0  0
  -21.7173  -39.3158   -7.1673 C   0  0  0  0  0  0  0  0  0  0  0  0
  -21.3473  -39.5841   -5.8430 C   0  0  0  0  0  0  0  0  0  0  0  0
  -20.0725  -39.8979   -5.4688 C   0  0  0  0  0  0  0  0  0  0  0  0
  -19.1600  -39.9348   -6.4897 C   0  0  0  0  0  0  0  0  0  0  0  0
  -23.0647  -39.0338   -7.2707 O   0  0  0  0  0  0  0  0  0  0  0  0
  -24.1676  -39.5831   -7.9054 C   0  0  0  0  0  0  0  0  0  0  0  0
  -23.7715  -40.5045   -9.0027 C   0  0  0  0  0  0  0  0  0  0  0  0
  -23.1628  -41.8058   -8.5243 C   0  0  0  0  0  0  0  0  0  0  0  0
  -22.5095  -42.5763   -9.6125 C   0  0  0  0  0  0  0  0  0  0  0  0
  -21.0064  -42.6776   -9.5315 C   0  0  0  0  0  0  0  0  0  0  0  0
  -20.5291  -43.1524   -8.2160 C   0  0  0  0  0  0  0  0  0  0  0  0
  -21.4430  -43.6424   -7.4559 O   0  0  0  0  0  0  0  0  0  0  0  0
  -19.1979  -43.0932   -7.7897 N   0  0  0  0  0  0  0  0  0  0  0  0
  -18.0055  -43.4764   -8.4833 C   0  0  1  0  0  0  0  0  0  0  0  0
  -18.0637  -43.5099   -9.9710 C   0  0  0  0  0  0  0  0  0  0  0  0
  -16.8000  -42.7978   -7.9325 C   0  0  0  0  0  0  0  0  0  0  0  0
  -15.7806  -43.6179   -7.8413 O   0  0  0  0  0  0  0  0  0  0  0  0
  -16.6724  -41.4685   -7.5347 N   0  0  0  0  0  0  0  0  0  0  0  0
  1  2  1  0
  2  3  1  0
  3  4  1  0
  4  5  1  0
  5  6  1  0
  6  7  2  0
  6  8  1  0
  8  9  1  6
  8 10  1  0
 10 11  1  0
 11 12  1  1
 11 13  1  0
 13 14  1  1
 14 15  1  0
 15 16  1  0
 16 17  2  0
 17 18  1  0
 18 19  2  0
 19 20  1  0
 17 21  1  0
 21 22  1  0
 22 23  1  0
 23 24  1  0
 24 25  1  0
 25 26  1  0
 26 27  1  0
 27 28  2  0
 27 29  1  0
 29 30  1  0
 30 31  1  6
 30 32  1  0
 32 33  2  0
 32 34  1  0
 20 15  2  0
 34 13  1  0
M  END
$$$$
