
     RDKit          3D

 34 35  0  0  0  0  0  0  0  0999 V2000
  -22.9888  -37.9729   -7.3111 C   0  0  0  0  0  0  0  0  0  0  0  0
  -23.0555  -39.0881   -6.3092 C   0  0  0  0  0  0  0  0  0  0  0  0
  -21.7815  -39.8929   -6.2762 C   0  0  0  0  0  0  0  0  0  0  0  0
  -20.8372  -39.5465   -7.3902 C   0  0  0  0  0  0  0  0  0  0  0  0
  -19.5308  -39.2613   -6.8633 N   0  0  0  0  0  0  0  0  0  0  0  0
  -18.4636  -38.7891   -7.7130 C   0  0  0  0  0  0  0  0  0  0  0  0
  -18.6551  -38.9645   -8.9249 O   0  0  0  0  0  0  0  0  0  0  0  0
  -17.3222  -38.1788   -7.0381 C   0  0  2  0  0  0  0  0  0  0  0  0
  -17.8905  -37.0603   -6.1609 C   0  0  0  0  0  0  0  0  0  0  0  0
  -16.2169  -37.6538   -7.9077 C   0  0  0  0  0  0  0  0  0  0  0  0
  -15.2854  -38.6204   -8.4660 C   0  0  2  0  0  0  0  0  0  0  0  0
  -14.7234  -38.1953   -9.6578 O   0  0  0  0  0  0  0  0  0  0  0  0
  -15.8544  -40.0490   -8.6011 C   0  0  2  0  0  0  0  0  0  0  0  0
  -14.8981  -41.1339   -8.3913 C   0  0  0  0  0  0  0  0  0  0  0  0
  -14.0470  -41.6681   -9.4697 C   0  0  0  0  0  0  0  0  0  0  0  0
  -13.1367  -42.6925   -9.4741 C   0  0  0  0  0  0  0  0  0  0  0  0
  -12.4958  -42.9976  -10.6752 C   0  0  0  0  0  0  0  0  0  0  0  0
  -12.7839  -42.2614  -11.8317 C   0  0  0  0  0  0  0  0  0  0  0  0
  -13.6822  -41.2340  -11.8630 C   0  0  0  0  0  0  0  0  0  0  0  0
  -14.2963  -40.9629  -10.6691 C   0  0  0  0  0  0  0  0  0  0  0  0
  -11.5589  -43.9815  -10.9199 O   0  0  0  0  0  0  0  0  0  0  0  0
  -11.5060  -45.3653  -10.8618 C   0  0  0  0  0  0  0  0  0  0  0  0
  -12.6028  -45.9257  -10.0293 C   0  0  0  0  0  0  0  0  0  0  0  0
  -13.9738  -45.8167  -10.6628 C   0  0  0  0  0  0  0  0  0  0  0  0
  -15.0777  -46.1032   -9.7120 C   0  0  0  0  0  0  0  0  0  0  0  0
  -15.9461  -44.9260   -9.3435 C   0  0  0  0  0  0  0  0  0  0  0  0
  -16.4660  -44.2000  -10.5209 C   0  0  0  0  0  0  0  0  0  0  0  0
  -16.3222  -44.8158  -11.6404 O   0  0  0  0  0  0  0  0  0  0  0  0
  -17.0737  -42.9409  -10.4684 N   0  0  0  0  0  0  0  0  0  0  0  0
  -18.0947  -42.4628   -9.5859 C   0  0  1  0  0  0  0  0  0  0  0  0
  -18.2420  -43.1554   -8.2758 C   0  0  0  0  0  0  0  0  0  0  0  0
  -18.1009  -40.9765   -9.4971 C   0  0  0  0  0  0  0  0  0  0  0  0
  -19.3207  -40.4947   -9.5074 O   0  0  0  0  0  0  0  0  0  0  0  0
  -17.0057  -40.1191   -9.4121 N   0  0  0  0  0  0  0  0  0  0  0  0
  1  2  1  0
  2  3  1  0
  3  4  1  0
  4  5  1  0
  5  6  1  0
  6  7  2  0
  6  8  1  0
  8  9  1  6
  8 10  1  0
 10 11  1  0
 11 12  1  6
 11 13  1  0
 13 14  1  6
 14 15  1  0
 15 16  1  0
 16 17  2  0
 17 18  1  0
 18 19  2  0
 19 20  1  0
 17 21  1  0
 21 22  1  0
 22 23  1  0
 23 24  1  0
 24 25  1  0
 25 26  1  0
 26 27  1  0
 27 28  2  0
 27 29  1  0
 29 30  1  0
 30 31  1  1
 30 32  1  0
 32 33  2  0
 32 34  1  0
 20 15  2  0
 34 13  1  0
M  END
$$$$
