
     RDKit          3D

 34 35  0  0  0  0  0  0  0  0999 V2000
  -12.9724  -35.0924  -14.2200 C   0  0  0  0  0  0  0  0  0  0  0  0
  -13.2315  -36.5668  -14.1158 C   0  0  0  0  0  0  0  0  0  0  0  0
  -12.5235  -37.1815  -12.9357 C   0  0  0  0  0  0  0  0  0  0  0  0
  -13.2566  -38.3554  -12.3552 C   0  0  0  0  0  0  0  0  0  0  0  0
  -13.5600  -38.1165  -10.9708 N   0  0  0  0  0  0  0  0  0  0  0  0
  -14.1462  -39.1421  -10.1413 C   0  0  0  0  0  0  0  0  0  0  0  0
  -14.6557  -40.0820  -10.7683 O   0  0  0  0  0  0  0  0  0  0  0  0
  -14.0599  -38.9344   -8.6990 C   0  0  2  0  0  0  0  0  0  0  0  0
  -12.6643  -39.4045   -8.2809 C   0  0  0  0  0  0  0  0  0  0  0  0
  -15.1108  -39.5910   -7.8517 C   0  0  0  0  0  0  0  0  0  0  0  0
  -16.5013  -39.3040   -8.1647 C   0  0  2  0  0  0  0  0  0  0  0  0
  -17.0446  -38.3302   -7.3441 O   0  0  0  0  0  0  0  0  0  0  0  0
  -17.4114  -40.5495   -8.2226 C   0  0  2  0  0  0  0  0  0  0  0  0
  -18.6261  -40.4095   -9.0228 C   0  0  0  0  0  0  0  0  0  0  0  0
  -19.8810  -39.8586   -8.4802 C   0  0  0  0  0  0  0  0  0  0  0  0
  -21.1134  -39.6909   -9.0556 C   0  0  0  0  0  0  0  0  0  0  0  0
  -22.1397  -39.1650   -8.2704 C   0  0  0  0  0  0  0  0  0  0  0  0
  -21.8953  -38.8183   -6.9352 C   0  0  0  0  0  0  0  0  0  0  0  0
  -20.6805  -38.9693   -6.3309 C   0  0  0  0  0  0  0  0  0  0  0  0
  -19.6964  -39.4915   -7.1278 C   0  0  0  0  0  0  0  0  0  0  0  0
  -23.4502  -38.9179   -8.6273 O   0  0  0  0  0  0  0  0  0  0  0  0
  -24.5380  -39.6596   -9.0604 C   0  0  0  0  0  0  0  0  0  0  0  0
  -24.1272  -40.9889   -9.5839 C   0  0  0  0  0  0  0  0  0  0  0  0
  -23.6563  -41.9527   -8.5152 C   0  0  0  0  0  0  0  0  0  0  0  0
  -22.9793  -43.1515   -9.0713 C   0  0  0  0  0  0  0  0  0  0  0  0
  -21.4988  -43.2523   -8.7988 C   0  0  0  0  0  0  0  0  0  0  0  0
  -21.1623  -43.0972   -7.3683 C   0  0  0  0  0  0  0  0  0  0  0  0
  -22.1668  -43.1625   -6.5683 O   0  0  0  0  0  0  0  0  0  0  0  0
  -19.8679  -42.8937   -6.8783 N   0  0  0  0  0  0  0  0  0  0  0  0
  -18.6568  -43.5860   -7.2007 C   0  0  1  0  0  0  0  0  0  0  0  0
  -18.6010  -44.2853   -8.5143 C   0  0  0  0  0  0  0  0  0  0  0  0
  -17.4508  -42.7700   -6.8894 C   0  0  0  0  0  0  0  0  0  0  0  0
  -16.5055  -43.4923   -6.3371 O   0  0  0  0  0  0  0  0  0  0  0  0
  -17.2560  -41.4090   -7.1157 N   0  0  0  0  0  0  0  0  0  0  0  0
  1  2  1  0
  2  3  1  0
  3  4  1  0
  4  5  1  0
  5  6  1  0
  6  7  2  0
  6  8  1  0
  8  9  1  1
  8 10  1  0
 10 11  1  0
 11 12  1  1
 11 13  1  0
 13 14  1  1
 14 15  1  0
 15 16  1  0
 16 17  2  0
 17 18  1  0
 18 19  2  0
 19 20  1  0
 17 21  1  0
 21 22  1  0
 22 23  1  0
 23 24  1  0
 24 25  1  0
 25 26  1  0
 26 27  1  0
 27 28  2  0
 27 29  1  0
 29 30  1  0
 30 31  1  6
 30 32  1  0
 32 33  2  0
 32 34  1  0
 20 15  2  0
 34 13  1  0
M  END
$$$$
