
     RDKit          3D

 34 35  0  0  0  0  0  0  0  0999 V2000
  -11.3065  -38.2629  -14.6934 C   0  0  0  0  0  0  0  0  0  0  0  0
  -11.7724  -37.2014  -13.7404 C   0  0  0  0  0  0  0  0  0  0  0  0
  -13.2495  -36.9327  -13.8745 C   0  0  0  0  0  0  0  0  0  0  0  0
  -14.0910  -37.8226  -13.0070 C   0  0  0  0  0  0  0  0  0  0  0  0
  -14.0333  -37.3824  -11.6400 N   0  0  0  0  0  0  0  0  0  0  0  0
  -15.0164  -37.8054  -10.6714 C   0  0  0  0  0  0  0  0  0  0  0  0
  -16.1372  -38.0410  -11.1452 O   0  0  0  0  0  0  0  0  0  0  0  0
  -14.5622  -37.8961   -9.2871 C   0  0  2  0  0  0  0  0  0  0  0  0
  -13.0736  -38.2479   -9.3464 C   0  0  0  0  0  0  0  0  0  0  0  0
  -15.2928  -38.8539   -8.3914 C   0  0  0  0  0  0  0  0  0  0  0  0
  -16.7401  -38.7350   -8.3197 C   0  0  2  0  0  0  0  0  0  0  0  0
  -17.1694  -38.1197   -7.1560 O   0  0  0  0  0  0  0  0  0  0  0  0
  -17.5006  -40.0567   -8.5597 C   0  0  2  0  0  0  0  0  0  0  0  0
  -18.8541  -39.9204   -9.0933 C   0  0  0  0  0  0  0  0  0  0  0  0
  -20.0348  -39.7183   -8.2344 C   0  0  0  0  0  0  0  0  0  0  0  0
  -21.3655  -39.6122   -8.5439 C   0  0  0  0  0  0  0  0  0  0  0  0
  -22.2740  -39.4564   -7.4966 C   0  0  0  0  0  0  0  0  0  0  0  0
  -21.8179  -39.4058   -6.1729 C   0  0  0  0  0  0  0  0  0  0  0  0
  -20.5006  -39.5056   -5.8287 C   0  0  0  0  0  0  0  0  0  0  0  0
  -19.6360  -39.6616   -6.8795 C   0  0  0  0  0  0  0  0  0  0  0  0
  -23.6477  -39.3386   -7.5650 O   0  0  0  0  0  0  0  0  0  0  0  0
  -24.7094  -40.1154   -8.0015 C   0  0  0  0  0  0  0  0  0  0  0  0
  -24.2619  -41.1998   -8.9146 C   0  0  0  0  0  0  0  0  0  0  0  0
  -23.4908  -42.3059   -8.2255 C   0  0  0  0  0  0  0  0  0  0  0  0
  -22.8044  -43.2157   -9.1771 C   0  0  0  0  0  0  0  0  0  0  0  0
  -21.2973  -43.1466   -9.1773 C   0  0  0  0  0  0  0  0  0  0  0  0
  -20.7119  -43.2881   -7.8278 C   0  0  0  0  0  0  0  0  0  0  0  0
  -21.5307  -43.6989   -6.9256 O   0  0  0  0  0  0  0  0  0  0  0  0
  -19.3782  -43.0084   -7.5114 N   0  0  0  0  0  0  0  0  0  0  0  0
  -18.1824  -43.4055   -8.1913 C   0  0  1  0  0  0  0  0  0  0  0  0
  -18.3024  -43.7523   -9.6345 C   0  0  0  0  0  0  0  0  0  0  0  0
  -17.0371  -42.5099   -7.8697 C   0  0  0  0  0  0  0  0  0  0  0  0
  -15.9292  -43.1868   -7.6831 O   0  0  0  0  0  0  0  0  0  0  0  0
  -17.0414  -41.1211   -7.7571 N   0  0  0  0  0  0  0  0  0  0  0  0
  1  2  1  0
  2  3  1  0
  3  4  1  0
  4  5  1  0
  5  6  1  0
  6  7  2  0
  6  8  1  0
  8  9  1  6
  8 10  1  0
 10 11  1  0
 11 12  1  1
 11 13  1  0
 13 14  1  1
 14 15  1  0
 15 16  1  0
 16 17  2  0
 17 18  1  0
 18 19  2  0
 19 20  1  0
 17 21  1  0
 21 22  1  0
 22 23  1  0
 23 24  1  0
 24 25  1  0
 25 26  1  0
 26 27  1  0
 27 28  2  0
 27 29  1  0
 29 30  1  0
 30 31  1  6
 30 32  1  0
 32 33  2  0
 32 34  1  0
 20 15  2  0
 34 13  1  0
M  END
$$$$
