
     RDKit          3D

 34 35  0  0  0  0  0  0  0  0999 V2000
  -10.9450  -38.4126  -14.0310 C   0  0  0  0  0  0  0  0  0  0  0  0
  -12.2831  -38.1039  -14.6361 C   0  0  0  0  0  0  0  0  0  0  0  0
  -13.1663  -37.3344  -13.6877 C   0  0  0  0  0  0  0  0  0  0  0  0
  -13.3860  -38.0418  -12.3823 C   0  0  0  0  0  0  0  0  0  0  0  0
  -14.2250  -37.2514  -11.5240 N   0  0  0  0  0  0  0  0  0  0  0  0
  -15.3034  -37.8461  -10.7709 C   0  0  0  0  0  0  0  0  0  0  0  0
  -15.5912  -39.0028  -11.1105 O   0  0  0  0  0  0  0  0  0  0  0  0
  -15.8981  -37.0157   -9.7281 C   0  0  2  0  0  0  0  0  0  0  0  0
  -15.0881  -35.7170   -9.7001 C   0  0  0  0  0  0  0  0  0  0  0  0
  -15.9868  -37.6090   -8.3520 C   0  0  0  0  0  0  0  0  0  0  0  0
  -17.3008  -38.0124   -7.8783 C   0  0  2  0  0  0  0  0  0  0  0  0
  -17.5113  -37.6930   -6.5477 O   0  0  0  0  0  0  0  0  0  0  0  0
  -17.6516  -39.4901   -8.1547 C   0  0  2  0  0  0  0  0  0  0  0  0
  -19.0177  -39.7424   -8.6078 C   0  0  0  0  0  0  0  0  0  0  0  0
  -20.1448  -39.9362   -7.6778 C   0  0  0  0  0  0  0  0  0  0  0  0
  -21.4652  -40.2195   -7.9104 C   0  0  0  0  0  0  0  0  0  0  0  0
  -22.3065  -40.3838   -6.8096 C   0  0  0  0  0  0  0  0  0  0  0  0
  -21.7975  -40.2524   -5.5110 C   0  0  0  0  0  0  0  0  0  0  0  0
  -20.4895  -39.9686   -5.2427 C   0  0  0  0  0  0  0  0  0  0  0  0
  -19.6902  -39.8174   -6.3447 C   0  0  0  0  0  0  0  0  0  0  0  0
  -23.6551  -40.6784   -6.7989 O   0  0  0  0  0  0  0  0  0  0  0  0
  -24.4670  -41.7184   -7.2236 C   0  0  0  0  0  0  0  0  0  0  0  0
  -23.7818  -42.5826   -8.2205 C   0  0  0  0  0  0  0  0  0  0  0  0
  -22.6740  -43.4350   -7.6383 C   0  0  0  0  0  0  0  0  0  0  0  0
  -21.8153  -44.0598   -8.6760 C   0  0  0  0  0  0  0  0  0  0  0  0
  -20.3994  -43.5444   -8.7512 C   0  0  0  0  0  0  0  0  0  0  0  0
  -19.7088  -43.5587   -7.4448 C   0  0  0  0  0  0  0  0  0  0  0  0
  -20.3070  -44.2309   -6.5264 O   0  0  0  0  0  0  0  0  0  0  0  0
  -18.4989  -42.9069   -7.1831 N   0  0  0  0  0  0  0  0  0  0  0  0
  -17.2878  -42.9018   -7.9467 C   0  0  1  0  0  0  0  0  0  0  0  0
  -17.3971  -43.2106   -9.3994 C   0  0  0  0  0  0  0  0  0  0  0  0
  -16.4390  -41.7190   -7.6340 C   0  0  0  0  0  0  0  0  0  0  0  0
  -15.1708  -42.0415   -7.5454 O   0  0  0  0  0  0  0  0  0  0  0  0
  -16.8456  -40.4003   -7.4406 N   0  0  0  0  0  0  0  0  0  0  0  0
  1  2  1  0
  2  3  1  0
  3  4  1  0
  4  5  1  0
  5  6  1  0
  6  7  2  0
  6  8  1  0
  8  9  1  1
  8 10  1  0
 10 11  1  0
 11 12  1  1
 11 13  1  0
 13 14  1  1
 14 15  1  0
 15 16  1  0
 16 17  2  0
 17 18  1  0
 18 19  2  0
 19 20  1  0
 17 21  1  0
 21 22  1  0
 22 23  1  0
 23 24  1  0
 24 25  1  0
 25 26  1  0
 26 27  1  0
 27 28  2  0
 27 29  1  0
 29 30  1  0
 30 31  1  6
 30 32  1  0
 32 33  2  0
 32 34  1  0
 20 15  2  0
 34 13  1  0
M  END
$$$$
