
     RDKit          3D

 34 35  0  0  0  0  0  0  0  0999 V2000
  -12.1283  -39.1747  -14.6427 C   0  0  0  0  0  0  0  0  0  0  0  0
  -13.1042  -39.5370  -13.5617 C   0  0  0  0  0  0  0  0  0  0  0  0
  -12.4141  -39.8256  -12.2532 C   0  0  0  0  0  0  0  0  0  0  0  0
  -13.3489  -40.3320  -11.1937 C   0  0  0  0  0  0  0  0  0  0  0  0
  -14.5330  -39.5188  -11.1461 N   0  0  0  0  0  0  0  0  0  0  0  0
  -14.8738  -38.7545   -9.9699 C   0  0  0  0  0  0  0  0  0  0  0  0
  -13.9740  -38.6897   -9.1199 O   0  0  0  0  0  0  0  0  0  0  0  0
  -16.2118  -38.1715   -9.9433 C   0  0  2  0  0  0  0  0  0  0  0  0
  -16.2249  -37.0794  -11.0160 C   0  0  0  0  0  0  0  0  0  0  0  0
  -16.6907  -37.6237   -8.6303 C   0  0  0  0  0  0  0  0  0  0  0  0
  -16.9767  -38.5762   -7.5698 C   0  0  2  0  0  0  0  0  0  0  0  0
  -15.8694  -38.8531   -6.7863 O   0  0  0  0  0  0  0  0  0  0  0  0
  -17.6553  -39.8775   -8.0483 C   0  0  2  0  0  0  0  0  0  0  0  0
  -19.0964  -39.7936   -8.2752 C   0  0  0  0  0  0  0  0  0  0  0  0
  -20.0871  -39.9976   -7.2029 C   0  0  0  0  0  0  0  0  0  0  0  0
  -21.4572  -39.9995   -7.2318 C   0  0  0  0  0  0  0  0  0  0  0  0
  -22.1396  -40.2601   -6.0432 C   0  0  0  0  0  0  0  0  0  0  0  0
  -21.4260  -40.5042   -4.8626 C   0  0  0  0  0  0  0  0  0  0  0  0
  -20.0625  -40.5075   -4.7969 C   0  0  0  0  0  0  0  0  0  0  0  0
  -19.4234  -40.2523   -5.9812 C   0  0  0  0  0  0  0  0  0  0  0  0
  -23.5029  -40.3219   -5.8344 O   0  0  0  0  0  0  0  0  0  0  0  0
  -24.5618  -41.0933   -6.2865 C   0  0  0  0  0  0  0  0  0  0  0  0
  -24.2221  -41.8182   -7.5391 C   0  0  0  0  0  0  0  0  0  0  0  0
  -23.2342  -42.9496   -7.3471 C   0  0  0  0  0  0  0  0  0  0  0  0
  -22.6843  -43.4644   -8.6266 C   0  0  0  0  0  0  0  0  0  0  0  0
  -21.2212  -43.1874   -8.8688 C   0  0  0  0  0  0  0  0  0  0  0  0
  -20.3599  -43.6033   -7.7424 C   0  0  0  0  0  0  0  0  0  0  0  0
  -20.9368  -44.3523   -6.8709 O   0  0  0  0  0  0  0  0  0  0  0  0
  -19.0182  -43.2352   -7.5953 N   0  0  0  0  0  0  0  0  0  0  0  0
  -17.9593  -43.2632   -8.5584 C   0  0  1  0  0  0  0  0  0  0  0  0
  -18.3449  -43.2221   -9.9962 C   0  0  0  0  0  0  0  0  0  0  0  0
  -16.8526  -42.3359   -8.1943 C   0  0  0  0  0  0  0  0  0  0  0  0
  -15.6767  -42.8759   -8.4085 O   0  0  0  0  0  0  0  0  0  0  0  0
  -16.9515  -41.0434   -7.6831 N   0  0  0  0  0  0  0  0  0  0  0  0
  1  2  1  0
  2  3  1  0
  3  4  1  0
  4  5  1  0
  5  6  1  0
  6  7  2  0
  6  8  1  0
  8  9  1  6
  8 10  1  0
 10 11  1  0
 11 12  1  6
 11 13  1  0
 13 14  1  1
 14 15  1  0
 15 16  1  0
 16 17  2  0
 17 18  1  0
 18 19  2  0
 19 20  1  0
 17 21  1  0
 21 22  1  0
 22 23  1  0
 23 24  1  0
 24 25  1  0
 25 26  1  0
 26 27  1  0
 27 28  2  0
 27 29  1  0
 29 30  1  0
 30 31  1  6
 30 32  1  0
 32 33  2  0
 32 34  1  0
 20 15  2  0
 34 13  1  0
M  END
$$$$
