
     RDKit          3D

 34 35  0  0  0  0  0  0  0  0999 V2000
  -11.7325  -34.5349  -14.0170 C   0  0  0  0  0  0  0  0  0  0  0  0
  -12.9364  -34.2002  -13.1859 C   0  0  0  0  0  0  0  0  0  0  0  0
  -12.9644  -34.9785  -11.8955 C   0  0  0  0  0  0  0  0  0  0  0  0
  -13.5754  -36.3414  -12.0429 C   0  0  0  0  0  0  0  0  0  0  0  0
  -13.6604  -36.9888  -10.7626 N   0  0  0  0  0  0  0  0  0  0  0  0
  -14.2481  -38.2995  -10.6199 C   0  0  0  0  0  0  0  0  0  0  0  0
  -14.5920  -38.8280  -11.6870 O   0  0  0  0  0  0  0  0  0  0  0  0
  -14.3553  -38.8150   -9.2585 C   0  0  2  0  0  0  0  0  0  0  0  0
  -12.9278  -39.1349   -8.8075 C   0  0  0  0  0  0  0  0  0  0  0  0
  -15.2510  -40.0009   -9.0472 C   0  0  0  0  0  0  0  0  0  0  0  0
  -16.6790  -39.7521   -8.9347 C   0  0  2  0  0  0  0  0  0  0  0  0
  -16.9786  -38.7599   -8.0167 O   0  0  0  0  0  0  0  0  0  0  0  0
  -17.5278  -41.0160   -8.6800 C   0  0  2  0  0  0  0  0  0  0  0  0
  -18.9302  -40.9283   -9.0810 C   0  0  0  0  0  0  0  0  0  0  0  0
  -19.9798  -40.3822   -8.2018 C   0  0  0  0  0  0  0  0  0  0  0  0
  -21.3324  -40.2591   -8.3839 C   0  0  0  0  0  0  0  0  0  0  0  0
  -22.0904  -39.7248   -7.3416 C   0  0  0  0  0  0  0  0  0  0  0  0
  -21.4664  -39.3255   -6.1525 C   0  0  0  0  0  0  0  0  0  0  0  0
  -20.1224  -39.4313   -5.9380 C   0  0  0  0  0  0  0  0  0  0  0  0
  -19.4083  -39.9630   -6.9788 C   0  0  0  0  0  0  0  0  0  0  0  0
  -23.4542  -39.5159   -7.2942 O   0  0  0  0  0  0  0  0  0  0  0  0
  -24.5998  -40.2934   -7.3581 C   0  0  0  0  0  0  0  0  0  0  0  0
  -24.3266  -41.6327   -7.9426 C   0  0  0  0  0  0  0  0  0  0  0  0
  -23.5287  -42.5481   -7.0381 C   0  0  0  0  0  0  0  0  0  0  0  0
  -23.0153  -43.7529   -7.7376 C   0  0  0  0  0  0  0  0  0  0  0  0
  -21.5191  -43.8156   -7.9208 C   0  0  0  0  0  0  0  0  0  0  0  0
  -20.7732  -43.6025   -6.6630 C   0  0  0  0  0  0  0  0  0  0  0  0
  -21.4887  -43.6580   -5.5962 O   0  0  0  0  0  0  0  0  0  0  0  0
  -19.3978  -43.3567   -6.5916 N   0  0  0  0  0  0  0  0  0  0  0  0
  -18.3199  -44.0368   -7.2438 C   0  0  1  0  0  0  0  0  0  0  0  0
  -18.6408  -44.7820   -8.4926 C   0  0  0  0  0  0  0  0  0  0  0  0
  -17.1003  -43.1872   -7.3337 C   0  0  0  0  0  0  0  0  0  0  0  0
  -16.0122  -43.8708   -7.0711 O   0  0  0  0  0  0  0  0  0  0  0  0
  -17.0221  -41.8318   -7.6471 N   0  0  0  0  0  0  0  0  0  0  0  0
  1  2  1  0
  2  3  1  0
  3  4  1  0
  4  5  1  0
  5  6  1  0
  6  7  2  0
  6  8  1  0
  8  9  1  6
  8 10  1  0
 10 11  1  0
 11 12  1  1
 11 13  1  0
 13 14  1  1
 14 15  1  0
 15 16  1  0
 16 17  2  0
 17 18  1  0
 18 19  2  0
 19 20  1  0
 17 21  1  0
 21 22  1  0
 22 23  1  0
 23 24  1  0
 24 25  1  0
 25 26  1  0
 26 27  1  0
 27 28  2  0
 27 29  1  0
 29 30  1  0
 30 31  1  6
 30 32  1  0
 32 33  2  0
 32 34  1  0
 20 15  2  0
 34 13  1  0
M  END
$$$$
