
     RDKit          3D

 42 45  0  0  0  0  0  0  0  0999 V2000
  -17.6175  -46.0820  -11.4498 C   0  0  0  0  0  0  0  0  0  0  0  0
  -16.6865  -45.0547  -10.9148 C   0  0  0  0  0  0  0  0  0  0  0  0
  -17.1318  -43.8590  -10.4030 C   0  0  0  0  0  0  0  0  0  0  0  0
  -16.2860  -42.8432   -9.8797 C   0  0  0  0  0  0  0  0  0  0  0  0
  -14.9535  -43.0696   -9.8838 C   0  0  0  0  0  0  0  0  0  0  0  0
  -14.4748  -44.2895  -10.4059 C   0  0  0  0  0  0  0  0  0  0  0  0
  -15.3725  -45.1970  -10.8845 N   0  0  0  0  0  0  0  0  0  0  0  0
  -13.1891  -44.7114  -10.5059 O   0  0  0  0  0  0  0  0  0  0  0  0
  -12.0656  -44.9338  -11.1679 C   0  0  0  0  0  0  0  0  0  0  0  0
  -12.0542  -44.2439  -12.5628 C   0  0  0  0  0  0  0  0  0  0  0  0
  -13.0736  -43.1668  -12.5497 C   0  0  0  0  0  0  0  0  0  0  0  0
  -12.7040  -41.9693  -13.3962 C   0  0  0  0  0  0  0  0  0  0  0  0
  -13.0162  -40.6963  -12.6116 C   0  0  0  0  0  0  0  0  0  0  0  0
  -14.2142  -40.3452  -12.0273 C   0  0  0  0  0  0  0  0  0  0  0  0
  -14.2229  -39.2239  -11.2222 C   0  0  0  0  0  0  0  0  0  0  0  0
  -15.3041  -38.6517  -10.3777 C   0  0  0  0  0  0  0  0  0  0  0  0
  -15.7439  -39.5266   -9.2127 C   0  0  2  0  0  0  0  0  0  0  0  0
  -16.9260  -40.3027   -9.4915 N   0  0  0  0  0  0  0  0  0  0  0  0
  -17.0957  -41.6989   -9.4382 C   0  0  0  0  0  0  0  0  0  0  0  0
  -18.2566  -41.9622   -8.8540 O   0  0  0  0  0  0  0  0  0  0  0  0
  -16.1422  -38.5460   -8.0927 C   0  0  2  0  0  0  0  0  0  0  0  0
  -14.9763  -38.3502   -7.3567 O   0  0  0  0  0  0  0  0  0  0  0  0
  -17.2580  -39.0914   -7.2687 C   0  0  0  0  0  0  0  0  0  0  0  0
  -18.4051  -39.5453   -7.9547 N   0  0  0  0  0  0  0  0  0  0  0  0
  -19.6559  -38.8964   -7.6603 C   0  0  0  0  0  0  0  0  0  0  0  0
  -19.8035  -37.6065   -8.4572 C   0  0  0  0  0  0  0  0  0  0  0  0
  -19.9094  -38.6056   -6.2226 C   0  0  0  0  0  0  0  0  0  0  0  0
  -20.7467  -39.7980   -8.1783 C   0  0  0  0  0  0  0  0  0  0  0  0
  -22.0905  -39.6938   -7.9896 C   0  0  0  0  0  0  0  0  0  0  0  0
  -22.6971  -40.7690   -8.6574 C   0  0  0  0  0  0  0  0  0  0  0  0
  -24.1475  -41.0421   -8.7124 C   0  0  0  0  0  0  0  0  0  0  0  0
  -24.8170  -40.4678   -9.9411 C   0  0  0  0  0  0  0  0  0  0  0  0
  -24.0033  -39.3365  -10.5184 C   0  0  0  0  0  0  0  0  0  0  0  0
  -26.1698  -39.9202   -9.5280 C   0  0  0  0  0  0  0  0  0  0  0  0
  -25.0531  -41.5417  -10.9870 C   0  0  0  0  0  0  0  0  0  0  0  0
  -21.7131  -41.4474   -9.1996 O   0  0  0  0  0  0  0  0  0  0  0  0
  -20.5720  -40.9133   -8.9421 N   0  0  0  0  0  0  0  0  0  0  0  0
  -13.0184  -38.4961  -11.0501 C   0  0  0  0  0  0  0  0  0  0  0  0
  -11.8256  -38.8240  -11.6267 C   0  0  0  0  0  0  0  0  0  0  0  0
  -10.3642  -37.8969  -11.3927 Cl  0  0  0  0  0  0  0  0  0  0  0  0
  -11.8535  -39.9481  -12.4150 C   0  0  0  0  0  0  0  0  0  0  0  0
  -10.6400  -40.3261  -13.0321 O   0  0  0  0  0  0  0  0  0  0  0  0
  1  2  1  0
  2  3  2  0
  3  4  1  0
  4  5  2  0
  5  6  1  0
  6  7  2  0
  6  8  1  0
  8  9  1  0
  9 10  1  0
 10 11  1  0
 11 12  1  0
 12 13  1  0
 13 14  1  0
 14 15  2  0
 15 16  1  0
 17 16  1  6
 17 18  1  0
 18 19  1  0
 19 20  2  0
 17 21  1  0
 21 22  1  1
 21 23  1  0
 23 24  1  0
 24 25  1  0
 25 26  1  0
 25 27  1  0
 25 28  1  0
 28 29  1  0
 29 30  2  0
 30 31  1  0
 31 32  1  0
 32 33  1  0
 32 34  1  0
 32 35  1  0
 30 36  1  0
 36 37  1  0
 15 38  1  0
 38 39  2  0
 39 40  1  0
 39 41  1  0
 41 42  1  0
  7  2  1  0
 19  4  1  0
 37 28  2  0
 41 13  2  0
M  END
$$$$
