
     RDKit          3D

 42 45  0  0  0  0  0  0  0  0999 V2000
  -21.4825  -46.9817   -6.1197 C   0  0  0  0  0  0  0  0  0  0  0  0
  -20.2707  -46.3504   -6.7040 C   0  0  0  0  0  0  0  0  0  0  0  0
  -19.9721  -45.0224   -6.5111 C   0  0  0  0  0  0  0  0  0  0  0  0
  -18.8285  -44.3691   -7.0464 C   0  0  0  0  0  0  0  0  0  0  0  0
  -17.9758  -45.1045   -7.7940 C   0  0  0  0  0  0  0  0  0  0  0  0
  -18.2640  -46.4691   -8.0060 C   0  0  0  0  0  0  0  0  0  0  0  0
  -19.3895  -46.9977   -7.4472 N   0  0  0  0  0  0  0  0  0  0  0  0
  -17.5496  -47.3756   -8.7193 O   0  0  0  0  0  0  0  0  0  0  0  0
  -17.3048  -48.1066   -9.7943 C   0  0  0  0  0  0  0  0  0  0  0  0
  -18.1518  -47.6583  -11.0204 C   0  0  0  0  0  0  0  0  0  0  0  0
  -18.6187  -46.2726  -10.7728 C   0  0  0  0  0  0  0  0  0  0  0  0
  -18.7340  -45.4364  -12.0276 C   0  0  0  0  0  0  0  0  0  0  0  0
  -18.1364  -44.0568  -11.7567 C   0  0  0  0  0  0  0  0  0  0  0  0
  -18.4615  -43.1889  -10.7365 C   0  0  0  0  0  0  0  0  0  0  0  0
  -17.6742  -42.0652  -10.5843 C   0  0  0  0  0  0  0  0  0  0  0  0
  -17.6918  -41.0101   -9.5375 C   0  0  0  0  0  0  0  0  0  0  0  0
  -17.3341  -41.4853   -8.1367 C   0  0  2  0  0  0  0  0  0  0  0  0
  -18.4838  -41.7566   -7.3110 N   0  0  0  0  0  0  0  0  0  0  0  0
  -18.8361  -42.9520   -6.6569 C   0  0  0  0  0  0  0  0  0  0  0  0
  -19.2574  -42.6574   -5.4346 O   0  0  0  0  0  0  0  0  0  0  0  0
  -16.6140  -40.2956   -7.4729 C   0  0  2  0  0  0  0  0  0  0  0  0
  -15.8219  -40.8654   -6.4793 O   0  0  0  0  0  0  0  0  0  0  0  0
  -17.5896  -39.3060   -6.9341 C   0  0  0  0  0  0  0  0  0  0  0  0
  -17.8109  -38.1376   -7.6947 N   0  0  0  0  0  0  0  0  0  0  0  0
  -19.1711  -37.6923   -7.8485 C   0  0  0  0  0  0  0  0  0  0  0  0
  -19.5285  -37.5246   -9.3199 C   0  0  0  0  0  0  0  0  0  0  0  0
  -19.5275  -36.4434   -7.1213 C   0  0  0  0  0  0  0  0  0  0  0  0
  -20.0537  -38.8126   -7.3614 C   0  0  0  0  0  0  0  0  0  0  0  0
  -20.8085  -38.8632   -6.2301 C   0  0  0  0  0  0  0  0  0  0  0  0
  -21.4486  -40.1122   -6.2031 C   0  0  0  0  0  0  0  0  0  0  0  0
  -22.3661  -40.5881   -5.1481 C   0  0  0  0  0  0  0  0  0  0  0  0
  -23.8196  -40.2913   -5.4426 C   0  0  0  0  0  0  0  0  0  0  0  0
  -24.1350  -38.8387   -5.1868 C   0  0  0  0  0  0  0  0  0  0  0  0
  -24.6705  -41.1352   -4.5128 C   0  0  0  0  0  0  0  0  0  0  0  0
  -24.1770  -40.6710   -6.8677 C   0  0  0  0  0  0  0  0  0  0  0  0
  -21.0563  -40.7327   -7.2909 O   0  0  0  0  0  0  0  0  0  0  0  0
  -20.2493  -40.0095   -7.9833 N   0  0  0  0  0  0  0  0  0  0  0  0
  -16.5945  -41.8602  -11.4802 C   0  0  0  0  0  0  0  0  0  0  0  0
  -16.2629  -42.7039  -12.5004 C   0  0  0  0  0  0  0  0  0  0  0  0
  -14.9265  -42.4119  -13.5860 Cl  0  0  0  0  0  0  0  0  0  0  0  0
  -17.0636  -43.8136  -12.6171 C   0  0  0  0  0  0  0  0  0  0  0  0
  -16.7567  -44.7161  -13.6598 O   0  0  0  0  0  0  0  0  0  0  0  0
  1  2  1  0
  2  3  2  0
  3  4  1  0
  4  5  2  0
  5  6  1  0
  6  7  2  0
  6  8  1  0
  8  9  1  0
  9 10  1  0
 10 11  1  0
 11 12  1  0
 12 13  1  0
 13 14  1  0
 14 15  2  0
 15 16  1  0
 17 16  1  6
 17 18  1  0
 18 19  1  0
 19 20  2  0
 17 21  1  0
 21 22  1  1
 21 23  1  0
 23 24  1  0
 24 25  1  0
 25 26  1  0
 25 27  1  0
 25 28  1  0
 28 29  1  0
 29 30  2  0
 30 31  1  0
 31 32  1  0
 32 33  1  0
 32 34  1  0
 32 35  1  0
 30 36  1  0
 36 37  1  0
 15 38  1  0
 38 39  2  0
 39 40  1  0
 39 41  1  0
 41 42  1  0
  7  2  1  0
 19  4  1  0
 37 28  2  0
 41 13  2  0
M  END
$$$$
