
     RDKit          3D

 42 45  0  0  0  0  0  0  0  0999 V2000
  -23.4476  -42.1338   -6.2623 C   0  0  0  0  0  0  0  0  0  0  0  0
  -22.5514  -41.8352   -7.4094 C   0  0  0  0  0  0  0  0  0  0  0  0
  -21.4713  -40.9925   -7.2943 C   0  0  0  0  0  0  0  0  0  0  0  0
  -20.5835  -40.6729   -8.3576 C   0  0  0  0  0  0  0  0  0  0  0  0
  -20.8162  -41.2378   -9.5633 C   0  0  0  0  0  0  0  0  0  0  0  0
  -21.9202  -42.1046   -9.7040 C   0  0  0  0  0  0  0  0  0  0  0  0
  -22.7106  -42.3438   -8.6193 N   0  0  0  0  0  0  0  0  0  0  0  0
  -22.3296  -42.7667  -10.8152 O   0  0  0  0  0  0  0  0  0  0  0  0
  -23.1080  -42.9361  -11.8714 C   0  0  0  0  0  0  0  0  0  0  0  0
  -23.9615  -41.6734  -12.1861 C   0  0  0  0  0  0  0  0  0  0  0  0
  -23.3203  -40.5106  -11.5258 C   0  0  0  0  0  0  0  0  0  0  0  0
  -23.4780  -39.2146  -12.2891 C   0  0  0  0  0  0  0  0  0  0  0  0
  -22.1358  -38.4849  -12.3031 C   0  0  0  0  0  0  0  0  0  0  0  0
  -21.3532  -38.1502  -11.2191 C   0  0  0  0  0  0  0  0  0  0  0  0
  -20.0960  -37.6416  -11.4772 C   0  0  0  0  0  0  0  0  0  0  0  0
  -18.9885  -37.2918  -10.5495 C   0  0  0  0  0  0  0  0  0  0  0  0
  -18.3887  -38.4658   -9.7894 C   0  0  2  0  0  0  0  0  0  0  0  0
  -18.9165  -38.6173   -8.4568 N   0  0  0  0  0  0  0  0  0  0  0  0
  -19.5582  -39.7319   -7.8852 C   0  0  0  0  0  0  0  0  0  0  0  0
  -19.0878  -39.9077   -6.6579 O   0  0  0  0  0  0  0  0  0  0  0  0
  -16.8978  -38.1189   -9.6116 C   0  0  2  0  0  0  0  0  0  0  0  0
  -16.4768  -37.6925  -10.8687 O   0  0  0  0  0  0  0  0  0  0  0  0
  -16.1257  -39.2925   -9.1136 C   0  0  0  0  0  0  0  0  0  0  0  0
  -15.9574  -39.4090   -7.7169 N   0  0  0  0  0  0  0  0  0  0  0  0
  -16.1145  -40.7164   -7.1354 C   0  0  0  0  0  0  0  0  0  0  0  0
  -14.9456  -41.0506   -6.2173 C   0  0  0  0  0  0  0  0  0  0  0  0
  -16.3031  -41.8338   -8.1007 C   0  0  0  0  0  0  0  0  0  0  0  0
  -17.3136  -40.6468   -6.2252 C   0  0  0  0  0  0  0  0  0  0  0  0
  -18.3707  -41.5009   -6.1528 C   0  0  0  0  0  0  0  0  0  0  0  0
  -19.2390  -41.0177   -5.1614 C   0  0  0  0  0  0  0  0  0  0  0  0
  -20.5144  -41.6411   -4.7539 C   0  0  0  0  0  0  0  0  0  0  0  0
  -21.7069  -40.7263   -4.9232 C   0  0  0  0  0  0  0  0  0  0  0  0
  -22.8587  -41.4568   -5.5672 C   0  0  0  0  0  0  0  0  0  0  0  0
  -21.2985  -39.5833   -5.8328 C   0  0  0  0  0  0  0  0  0  0  0  0
  -22.1311  -40.1298   -3.5939 C   0  0  0  0  0  0  0  0  0  0  0  0
  -18.6747  -39.9262   -4.7002 O   0  0  0  0  0  0  0  0  0  0  0  0
  -17.5600  -39.6830   -5.2935 N   0  0  0  0  0  0  0  0  0  0  0  0
  -19.6862  -37.4820  -12.8250 C   0  0  0  0  0  0  0  0  0  0  0  0
  -20.4501  -37.8003  -13.9103 C   0  0  0  0  0  0  0  0  0  0  0  0
  -19.9091  -37.5835  -15.5565 Cl  0  0  0  0  0  0  0  0  0  0  0  0
  -21.6911  -38.3092  -13.6153 C   0  0  0  0  0  0  0  0  0  0  0  0
  -22.5169  -38.6537  -14.7087 O   0  0  0  0  0  0  0  0  0  0  0  0
  1  2  1  0
  2  3  2  0
  3  4  1  0
  4  5  2  0
  5  6  1  0
  6  7  2  0
  6  8  1  0
  8  9  1  0
  9 10  1  0
 10 11  1  0
 11 12  1  0
 12 13  1  0
 13 14  1  0
 14 15  2  0
 15 16  1  0
 17 16  1  1
 17 18  1  0
 18 19  1  0
 19 20  2  0
 17 21  1  0
 21 22  1  6
 21 23  1  0
 23 24  1  0
 24 25  1  0
 25 26  1  0
 25 27  1  0
 25 28  1  0
 28 29  1  0
 29 30  2  0
 30 31  1  0
 31 32  1  0
 32 33  1  0
 32 34  1  0
 32 35  1  0
 30 36  1  0
 36 37  1  0
 15 38  1  0
 38 39  2  0
 39 40  1  0
 39 41  1  0
 41 42  1  0
  7  2  1  0
 19  4  1  0
 37 28  2  0
 41 13  2  0
M  END
$$$$
