
     RDKit          3D

 42 45  0  0  0  0  0  0  0  0999 V2000
  -22.4915  -41.4353   -2.6194 C   0  0  0  0  0  0  0  0  0  0  0  0
  -22.0559  -41.7031   -4.0147 C   0  0  0  0  0  0  0  0  0  0  0  0
  -20.7948  -41.3862   -4.4612 C   0  0  0  0  0  0  0  0  0  0  0  0
  -20.3273  -41.6200   -5.7833 C   0  0  0  0  0  0  0  0  0  0  0  0
  -21.1802  -42.1949   -6.6602 C   0  0  0  0  0  0  0  0  0  0  0  0
  -22.4799  -42.5268   -6.2233 C   0  0  0  0  0  0  0  0  0  0  0  0
  -22.8279  -42.2589   -4.9328 N   0  0  0  0  0  0  0  0  0  0  0  0
  -23.4821  -43.1014   -6.9349 O   0  0  0  0  0  0  0  0  0  0  0  0
  -24.6103  -43.0712   -7.6250 C   0  0  0  0  0  0  0  0  0  0  0  0
  -25.0277  -41.6234   -8.0139 C   0  0  0  0  0  0  0  0  0  0  0  0
  -23.8256  -40.7596   -7.9222 C   0  0  0  0  0  0  0  0  0  0  0  0
  -23.8050  -39.6366   -8.9349 C   0  0  0  0  0  0  0  0  0  0  0  0
  -22.4072  -39.5493   -9.5449 C   0  0  0  0  0  0  0  0  0  0  0  0
  -21.2077  -39.4291   -8.8767 C   0  0  0  0  0  0  0  0  0  0  0  0
  -20.0517  -39.5377   -9.6233 C   0  0  0  0  0  0  0  0  0  0  0  0
  -18.6277  -39.5623   -9.1976 C   0  0  0  0  0  0  0  0  0  0  0  0
  -18.2281  -40.7625   -8.3516 C   0  0  2  0  0  0  0  0  0  0  0  0
  -18.2263  -40.4924   -6.9359 N   0  0  0  0  0  0  0  0  0  0  0  0
  -18.9435  -41.1427   -5.9143 C   0  0  0  0  0  0  0  0  0  0  0  0
  -18.1334  -41.3291   -4.8811 O   0  0  0  0  0  0  0  0  0  0  0  0
  -16.7614  -41.0545   -8.7233 C   0  0  2  0  0  0  0  0  0  0  0  0
  -16.6777  -42.4431   -8.7875 O   0  0  0  0  0  0  0  0  0  0  0  0
  -15.8237  -40.4670   -7.7247 C   0  0  0  0  0  0  0  0  0  0  0  0
  -15.3261  -39.1729   -7.9897 N   0  0  0  0  0  0  0  0  0  0  0  0
  -16.1754  -38.0557   -7.6692 C   0  0  0  0  0  0  0  0  0  0  0  0
  -15.4113  -36.9945   -6.8878 C   0  0  0  0  0  0  0  0  0  0  0  0
  -17.4271  -38.3864   -6.9345 C   0  0  0  0  0  0  0  0  0  0  0  0
  -16.5332  -37.3923   -8.9742 C   0  0  0  0  0  0  0  0  0  0  0  0
  -15.8179  -36.4746   -9.6801 C   0  0  0  0  0  0  0  0  0  0  0  0
  -16.5620  -36.1458  -10.8240 C   0  0  0  0  0  0  0  0  0  0  0  0
  -16.1565  -35.1846  -11.8694 C   0  0  0  0  0  0  0  0  0  0  0  0
  -17.2252  -34.9528  -12.9143 C   0  0  0  0  0  0  0  0  0  0  0  0
  -18.2833  -36.0258  -12.8493 C   0  0  0  0  0  0  0  0  0  0  0  0
  -16.5690  -35.0121  -14.2805 C   0  0  0  0  0  0  0  0  0  0  0  0
  -17.8502  -33.5786  -12.7613 C   0  0  0  0  0  0  0  0  0  0  0  0
  -17.6581  -36.8637  -10.7498 O   0  0  0  0  0  0  0  0  0  0  0  0
  -17.6736  -37.5956   -9.6925 N   0  0  0  0  0  0  0  0  0  0  0  0
  -20.1578  -39.7531  -11.0207 C   0  0  0  0  0  0  0  0  0  0  0  0
  -21.3360  -39.8666  -11.7002 C   0  0  0  0  0  0  0  0  0  0  0  0
  -21.4232  -40.1271  -13.4248 Cl  0  0  0  0  0  0  0  0  0  0  0  0
  -22.4641  -39.7599  -10.9244 C   0  0  0  0  0  0  0  0  0  0  0  0
  -23.7075  -39.8720  -11.5858 O   0  0  0  0  0  0  0  0  0  0  0  0
  1  2  1  0
  2  3  2  0
  3  4  1  0
  4  5  2  0
  5  6  1  0
  6  7  2  0
  6  8  1  0
  8  9  1  0
  9 10  1  0
 10 11  1  0
 11 12  1  0
 12 13  1  0
 13 14  1  0
 14 15  2  0
 15 16  1  0
 17 16  1  6
 17 18  1  0
 18 19  1  0
 19 20  2  0
 17 21  1  0
 21 22  1  1
 21 23  1  0
 23 24  1  0
 24 25  1  0
 25 26  1  0
 25 27  1  0
 25 28  1  0
 28 29  1  0
 29 30  2  0
 30 31  1  0
 31 32  1  0
 32 33  1  0
 32 34  1  0
 32 35  1  0
 30 36  1  0
 36 37  1  0
 15 38  1  0
 38 39  2  0
 39 40  1  0
 39 41  1  0
 41 42  1  0
  7  2  1  0
 19  4  1  0
 37 28  2  0
 41 13  2  0
M  END
$$$$
