
     RDKit          3D

 42 45  0  0  0  0  0  0  0  0999 V2000
  -17.6098  -46.5400   -6.8365 C   0  0  0  0  0  0  0  0  0  0  0  0
  -18.2328  -45.3116   -7.3945 C   0  0  0  0  0  0  0  0  0  0  0  0
  -17.6172  -44.0842   -7.3287 C   0  0  0  0  0  0  0  0  0  0  0  0
  -18.1677  -42.8794   -7.8451 C   0  0  0  0  0  0  0  0  0  0  0  0
  -19.3779  -42.9461   -8.4434 C   0  0  0  0  0  0  0  0  0  0  0  0
  -20.0281  -44.1956   -8.5204 C   0  0  0  0  0  0  0  0  0  0  0  0
  -19.4120  -45.2909   -7.9919 N   0  0  0  0  0  0  0  0  0  0  0  0
  -21.2355  -44.4797   -9.0704 O   0  0  0  0  0  0  0  0  0  0  0  0
  -22.5325  -44.7327   -9.0096 C   0  0  0  0  0  0  0  0  0  0  0  0
  -23.1311  -44.4213   -7.6073 C   0  0  0  0  0  0  0  0  0  0  0  0
  -22.2038  -43.4993   -6.9076 C   0  0  0  0  0  0  0  0  0  0  0  0
  -22.8985  -42.5208   -5.9872 C   0  0  0  0  0  0  0  0  0  0  0  0
  -22.2892  -41.1349   -6.1916 C   0  0  0  0  0  0  0  0  0  0  0  0
  -20.9576  -40.7864   -6.1188 C   0  0  0  0  0  0  0  0  0  0  0  0
  -20.6147  -39.5065   -6.5059 C   0  0  0  0  0  0  0  0  0  0  0  0
  -19.2804  -38.8665   -6.6458 C   0  0  0  0  0  0  0  0  0  0  0  0
  -18.3891  -39.4626   -7.7257 C   0  0  2  0  0  0  0  0  0  0  0  0
  -17.4314  -40.4135   -7.2199 N   0  0  0  0  0  0  0  0  0  0  0  0
  -17.2508  -41.7607   -7.5850 C   0  0  0  0  0  0  0  0  0  0  0  0
  -15.9511  -41.9983   -7.6975 O   0  0  0  0  0  0  0  0  0  0  0  0
  -17.5599  -38.2826   -8.2687 C   0  0  2  0  0  0  0  0  0  0  0  0
  -18.4993  -37.3169   -8.6212 O   0  0  0  0  0  0  0  0  0  0  0  0
  -16.7087  -38.7038   -9.4174 C   0  0  0  0  0  0  0  0  0  0  0  0
  -15.3940  -39.1269   -9.1258 N   0  0  0  0  0  0  0  0  0  0  0  0
  -14.3583  -38.7697  -10.0596 C   0  0  0  0  0  0  0  0  0  0  0  0
  -12.9947  -38.7457   -9.3810 C   0  0  0  0  0  0  0  0  0  0  0  0
  -14.5579  -37.4850  -10.7845 C   0  0  0  0  0  0  0  0  0  0  0  0
  -14.2713  -39.8908  -11.0630 C   0  0  0  0  0  0  0  0  0  0  0  0
  -13.8695  -41.1755  -10.8626 C   0  0  0  0  0  0  0  0  0  0  0  0
  -13.9507  -41.8424  -12.0951 C   0  0  0  0  0  0  0  0  0  0  0  0
  -13.6071  -43.2589  -12.3332 C   0  0  0  0  0  0  0  0  0  0  0  0
  -12.1198  -43.5292  -12.2821 C   0  0  0  0  0  0  0  0  0  0  0  0
  -11.4414  -43.0461  -13.5396 C   0  0  0  0  0  0  0  0  0  0  0  0
  -11.9170  -45.0286  -12.1764 C   0  0  0  0  0  0  0  0  0  0  0  0
  -11.4900  -42.8904  -11.0582 C   0  0  0  0  0  0  0  0  0  0  0  0
  -14.3857  -40.9481  -12.9515 O   0  0  0  0  0  0  0  0  0  0  0  0
  -14.5813  -39.8090  -12.3878 N   0  0  0  0  0  0  0  0  0  0  0  0
  -21.6375  -38.6264   -6.9412 C   0  0  0  0  0  0  0  0  0  0  0  0
  -22.9612  -38.9513   -7.0123 C   0  0  0  0  0  0  0  0  0  0  0  0
  -24.1916  -37.8348   -7.5501 Cl  0  0  0  0  0  0  0  0  0  0  0  0
  -23.2638  -40.2339   -6.6258 C   0  0  0  0  0  0  0  0  0  0  0  0
  -24.6231  -40.6147   -6.6837 O   0  0  0  0  0  0  0  0  0  0  0  0
  1  2  1  0
  2  3  2  0
  3  4  1  0
  4  5  2  0
  5  6  1  0
  6  7  2  0
  6  8  1  0
  8  9  1  0
  9 10  1  0
 10 11  1  0
 11 12  1  0
 12 13  1  0
 13 14  1  0
 14 15  2  0
 15 16  1  0
 17 16  1  1
 17 18  1  0
 18 19  1  0
 19 20  2  0
 17 21  1  0
 21 22  1  6
 21 23  1  0
 23 24  1  0
 24 25  1  0
 25 26  1  0
 25 27  1  0
 25 28  1  0
 28 29  1  0
 29 30  2  0
 30 31  1  0
 31 32  1  0
 32 33  1  0
 32 34  1  0
 32 35  1  0
 30 36  1  0
 36 37  1  0
 15 38  1  0
 38 39  2  0
 39 40  1  0
 39 41  1  0
 41 42  1  0
  7  2  1  0
 19  4  1  0
 37 28  2  0
 41 13  2  0
M  END
$$$$
