
     RDKit          3D

 42 45  0  0  0  0  0  0  0  0999 V2000
  -19.9937  -45.6337  -10.9984 C   0  0  0  0  0  0  0  0  0  0  0  0
  -20.1120  -44.2711  -10.4172 C   0  0  0  0  0  0  0  0  0  0  0  0
  -19.0532  -43.6412   -9.8073 C   0  0  0  0  0  0  0  0  0  0  0  0
  -19.1118  -42.3408   -9.2357 C   0  0  0  0  0  0  0  0  0  0  0  0
  -20.2881  -41.6781   -9.2982 C   0  0  0  0  0  0  0  0  0  0  0  0
  -21.3882  -42.3067   -9.9184 C   0  0  0  0  0  0  0  0  0  0  0  0
  -21.2250  -43.5578  -10.4348 N   0  0  0  0  0  0  0  0  0  0  0  0
  -22.6455  -41.8243  -10.0837 O   0  0  0  0  0  0  0  0  0  0  0  0
  -23.9268  -41.7299   -9.7686 C   0  0  0  0  0  0  0  0  0  0  0  0
  -24.2445  -42.3674   -8.3850 C   0  0  0  0  0  0  0  0  0  0  0  0
  -22.9763  -42.4621   -7.6220 C   0  0  0  0  0  0  0  0  0  0  0  0
  -23.1503  -42.2908   -6.1295 C   0  0  0  0  0  0  0  0  0  0  0  0
  -22.0539  -41.3631   -5.6091 C   0  0  0  0  0  0  0  0  0  0  0  0
  -20.6929  -41.4957   -5.7816 C   0  0  0  0  0  0  0  0  0  0  0  0
  -19.8957  -40.4473   -5.3681 C   0  0  0  0  0  0  0  0  0  0  0  0
  -18.4312  -40.2356   -5.5093 C   0  0  0  0  0  0  0  0  0  0  0  0
  -17.9363  -40.0849   -6.9405 C   0  0  2  0  0  0  0  0  0  0  0  0
  -17.4050  -41.3041   -7.4960 N   0  0  0  0  0  0  0  0  0  0  0  0
  -17.8070  -41.9917   -8.6564 C   0  0  0  0  0  0  0  0  0  0  0  0
  -16.7235  -42.3787   -9.3158 O   0  0  0  0  0  0  0  0  0  0  0  0
  -16.7468  -39.1085   -6.8610 C   0  0  2  0  0  0  0  0  0  0  0  0
  -17.2185  -38.0288   -6.1188 O   0  0  0  0  0  0  0  0  0  0  0  0
  -16.2810  -38.7127   -8.2204 C   0  0  0  0  0  0  0  0  0  0  0  0
  -15.8942  -39.7489   -9.0975 N   0  0  0  0  0  0  0  0  0  0  0  0
  -14.4923  -39.8761   -9.3987 C   0  0  0  0  0  0  0  0  0  0  0  0
  -14.0689  -41.3392   -9.4232 C   0  0  0  0  0  0  0  0  0  0  0  0
  -13.5695  -39.1229   -8.5060 C   0  0  0  0  0  0  0  0  0  0  0  0
  -14.3059  -39.3956  -10.8148 C   0  0  0  0  0  0  0  0  0  0  0  0
  -13.1983  -38.8441  -11.3816 C   0  0  0  0  0  0  0  0  0  0  0  0
  -13.5080  -38.5498  -12.7186 C   0  0  0  0  0  0  0  0  0  0  0  0
  -12.5906  -37.9389  -13.7017 C   0  0  0  0  0  0  0  0  0  0  0  0
  -12.7387  -36.4371  -13.8035 C   0  0  0  0  0  0  0  0  0  0  0  0
  -14.1342  -36.0619  -14.2360 C   0  0  0  0  0  0  0  0  0  0  0  0
  -11.7636  -35.9376  -14.8525 C   0  0  0  0  0  0  0  0  0  0  0  0
  -12.3891  -35.7632  -12.4897 C   0  0  0  0  0  0  0  0  0  0  0  0
  -14.7534  -38.9294  -12.8836 O   0  0  0  0  0  0  0  0  0  0  0  0
  -15.2447  -39.4229  -11.8025 N   0  0  0  0  0  0  0  0  0  0  0  0
  -20.5096  -39.3098   -4.7856 C   0  0  0  0  0  0  0  0  0  0  0  0
  -21.8539  -39.1644   -4.5996 C   0  0  0  0  0  0  0  0  0  0  0  0
  -22.5703  -37.7473   -3.8727 Cl  0  0  0  0  0  0  0  0  0  0  0  0
  -22.6153  -40.2237   -5.0286 C   0  0  0  0  0  0  0  0  0  0  0  0
  -24.0136  -40.1166   -4.8566 O   0  0  0  0  0  0  0  0  0  0  0  0
  1  2  1  0
  2  3  2  0
  3  4  1  0
  4  5  2  0
  5  6  1  0
  6  7  2  0
  6  8  1  0
  8  9  1  0
  9 10  1  0
 10 11  1  0
 11 12  1  0
 12 13  1  0
 13 14  1  0
 14 15  2  0
 15 16  1  0
 17 16  1  1
 17 18  1  0
 18 19  1  0
 19 20  2  0
 17 21  1  0
 21 22  1  1
 21 23  1  0
 23 24  1  0
 24 25  1  0
 25 26  1  0
 25 27  1  0
 25 28  1  0
 28 29  1  0
 29 30  2  0
 30 31  1  0
 31 32  1  0
 32 33  1  0
 32 34  1  0
 32 35  1  0
 30 36  1  0
 36 37  1  0
 15 38  1  0
 38 39  2  0
 39 40  1  0
 39 41  1  0
 41 42  1  0
  7  2  1  0
 19  4  1  0
 37 28  2  0
 41 13  2  0
M  END
$$$$
