
     RDKit          3D

 42 45  0  0  0  0  0  0  0  0999 V2000
  -18.3454  -46.0097   -5.9181 C   0  0  0  0  0  0  0  0  0  0  0  0
  -18.9678  -44.8026   -6.5212 C   0  0  0  0  0  0  0  0  0  0  0  0
  -18.2214  -43.7298   -6.9477 C   0  0  0  0  0  0  0  0  0  0  0  0
  -18.7649  -42.5524   -7.5302 C   0  0  0  0  0  0  0  0  0  0  0  0
  -20.1069  -42.4841   -7.6764 C   0  0  0  0  0  0  0  0  0  0  0  0
  -20.8921  -43.5733   -7.2439 C   0  0  0  0  0  0  0  0  0  0  0  0
  -20.2699  -44.6561   -6.6972 N   0  0  0  0  0  0  0  0  0  0  0  0
  -22.2414  -43.7065   -7.2953 O   0  0  0  0  0  0  0  0  0  0  0  0
  -23.4531  -43.6826   -6.7650 C   0  0  0  0  0  0  0  0  0  0  0  0
  -23.4713  -43.0126   -5.3605 C   0  0  0  0  0  0  0  0  0  0  0  0
  -22.2490  -42.1825   -5.2329 C   0  0  0  0  0  0  0  0  0  0  0  0
  -22.4442  -40.9370   -4.3975 C   0  0  0  0  0  0  0  0  0  0  0  0
  -21.7797  -39.7587   -5.1074 C   0  0  0  0  0  0  0  0  0  0  0  0
  -20.4768  -39.6736   -5.5487 C   0  0  0  0  0  0  0  0  0  0  0  0
  -20.1372  -38.5774   -6.3161 C   0  0  0  0  0  0  0  0  0  0  0  0
  -18.8709  -38.2499   -7.0223 C   0  0  0  0  0  0  0  0  0  0  0  0
  -18.5025  -39.1944   -8.1573 C   0  0  2  0  0  0  0  0  0  0  0  0
  -17.5539  -40.2098   -7.7748 N   0  0  0  0  0  0  0  0  0  0  0  0
  -17.6838  -41.6092   -7.8490 C   0  0  0  0  0  0  0  0  0  0  0  0
  -16.5490  -42.1157   -8.3118 O   0  0  0  0  0  0  0  0  0  0  0  0
  -17.7802  -38.3188   -9.1995 C   0  0  2  0  0  0  0  0  0  0  0  0
  -18.7213  -38.1074  -10.2039 O   0  0  0  0  0  0  0  0  0  0  0  0
  -16.5438  -38.9838   -9.7001 C   0  0  0  0  0  0  0  0  0  0  0  0
  -15.3720  -38.1999   -9.7696 N   0  0  0  0  0  0  0  0  0  0  0  0
  -14.8476  -37.9028  -11.0769 C   0  0  0  0  0  0  0  0  0  0  0  0
  -14.2725  -36.4931  -11.1279 C   0  0  0  0  0  0  0  0  0  0  0  0
  -15.7991  -38.0757  -12.2085 C   0  0  0  0  0  0  0  0  0  0  0  0
  -13.6639  -38.8113  -11.2880 C   0  0  0  0  0  0  0  0  0  0  0  0
  -13.3370  -39.5301  -12.3965 C   0  0  0  0  0  0  0  0  0  0  0  0
  -12.1535  -40.2300  -12.1141 C   0  0  0  0  0  0  0  0  0  0  0  0
  -11.4448  -41.1348  -13.0416 C   0  0  0  0  0  0  0  0  0  0  0  0
  -10.2019  -40.5183  -13.6441 C   0  0  0  0  0  0  0  0  0  0  0  0
   -9.6070  -41.4230  -14.6941 C   0  0  0  0  0  0  0  0  0  0  0  0
   -9.1815  -40.3375  -12.5365 C   0  0  0  0  0  0  0  0  0  0  0  0
  -10.4986  -39.1490  -14.2269 C   0  0  0  0  0  0  0  0  0  0  0  0
  -11.8372  -39.9050  -10.8826 O   0  0  0  0  0  0  0  0  0  0  0  0
  -12.6895  -39.0863  -10.3756 N   0  0  0  0  0  0  0  0  0  0  0  0
  -21.1299  -37.6048   -6.5964 C   0  0  0  0  0  0  0  0  0  0  0  0
  -22.4220  -37.6684   -6.1615 C   0  0  0  0  0  0  0  0  0  0  0  0
  -23.6141  -36.4451   -6.5254 Cl  0  0  0  0  0  0  0  0  0  0  0  0
  -22.7249  -38.7752   -5.4071 C   0  0  0  0  0  0  0  0  0  0  0  0
  -24.0523  -38.8834   -4.9355 O   0  0  0  0  0  0  0  0  0  0  0  0
  1  2  1  0
  2  3  2  0
  3  4  1  0
  4  5  2  0
  5  6  1  0
  6  7  2  0
  6  8  1  0
  8  9  1  0
  9 10  1  0
 10 11  1  0
 11 12  1  0
 12 13  1  0
 13 14  1  0
 14 15  2  0
 15 16  1  0
 17 16  1  1
 17 18  1  0
 18 19  1  0
 19 20  2  0
 17 21  1  0
 21 22  1  6
 21 23  1  0
 23 24  1  0
 24 25  1  0
 25 26  1  0
 25 27  1  0
 25 28  1  0
 28 29  1  0
 29 30  2  0
 30 31  1  0
 31 32  1  0
 32 33  1  0
 32 34  1  0
 32 35  1  0
 30 36  1  0
 36 37  1  0
 15 38  1  0
 38 39  2  0
 39 40  1  0
 39 41  1  0
 41 42  1  0
  7  2  1  0
 19  4  1  0
 37 28  2  0
 41 13  2  0
M  END
$$$$
