
     RDKit          3D

 42 45  0  0  0  0  0  0  0  0999 V2000
  -18.3398  -45.8220   -5.2147 C   0  0  0  0  0  0  0  0  0  0  0  0
  -19.0592  -44.7650   -5.9721 C   0  0  0  0  0  0  0  0  0  0  0  0
  -18.4306  -43.6252   -6.4145 C   0  0  0  0  0  0  0  0  0  0  0  0
  -19.0702  -42.5845   -7.1417 C   0  0  0  0  0  0  0  0  0  0  0  0
  -20.3855  -42.7265   -7.4186 C   0  0  0  0  0  0  0  0  0  0  0  0
  -21.0506  -43.8879   -6.9726 C   0  0  0  0  0  0  0  0  0  0  0  0
  -20.3431  -44.8261   -6.2815 N   0  0  0  0  0  0  0  0  0  0  0  0
  -22.3547  -44.2232   -7.1394 O   0  0  0  0  0  0  0  0  0  0  0  0
  -23.6067  -44.3430   -6.7293 C   0  0  0  0  0  0  0  0  0  0  0  0
  -23.8667  -43.5882   -5.3935 C   0  0  0  0  0  0  0  0  0  0  0  0
  -22.7938  -42.5789   -5.2211 C   0  0  0  0  0  0  0  0  0  0  0  0
  -23.2493  -41.3218   -4.5145 C   0  0  0  0  0  0  0  0  0  0  0  0
  -22.6865  -40.1096   -5.2545 C   0  0  0  0  0  0  0  0  0  0  0  0
  -21.3694  -39.8624   -5.5769 C   0  0  0  0  0  0  0  0  0  0  0  0
  -21.1088  -38.7834   -6.3975 C   0  0  0  0  0  0  0  0  0  0  0  0
  -19.8340  -38.3208   -7.0063 C   0  0  0  0  0  0  0  0  0  0  0  0
  -19.2190  -39.2759   -8.0190 C   0  0  2  0  0  0  0  0  0  0  0  0
  -18.1823  -40.1104   -7.4656 N   0  0  0  0  0  0  0  0  0  0  0  0
  -18.1053  -41.5154   -7.4348 C   0  0  0  0  0  0  0  0  0  0  0  0
  -16.8682  -41.8784   -7.7449 O   0  0  0  0  0  0  0  0  0  0  0  0
  -18.5216  -38.3766   -9.0579 C   0  0  2  0  0  0  0  0  0  0  0  0
  -19.5577  -37.8251   -9.8074 O   0  0  0  0  0  0  0  0  0  0  0  0
  -17.5615  -39.1563   -9.8897 C   0  0  0  0  0  0  0  0  0  0  0  0
  -16.9436  -38.4823  -10.9651 N   0  0  0  0  0  0  0  0  0  0  0  0
  -15.7275  -37.7635  -10.6883 C   0  0  0  0  0  0  0  0  0  0  0  0
  -15.2263  -38.0587   -9.2804 C   0  0  0  0  0  0  0  0  0  0  0  0
  -15.7926  -36.2884  -10.8766 C   0  0  0  0  0  0  0  0  0  0  0  0
  -14.6703  -38.3285  -11.6017 C   0  0  0  0  0  0  0  0  0  0  0  0
  -13.8947  -37.6705  -12.5059 C   0  0  0  0  0  0  0  0  0  0  0  0
  -13.0658  -38.6199  -13.1239 C   0  0  0  0  0  0  0  0  0  0  0  0
  -12.0643  -38.3378  -14.1720 C   0  0  0  0  0  0  0  0  0  0  0  0
  -10.6543  -38.2264  -13.6360 C   0  0  0  0  0  0  0  0  0  0  0  0
  -10.2939  -39.4381  -12.8132 C   0  0  0  0  0  0  0  0  0  0  0  0
  -10.5861  -37.0042  -12.7404 C   0  0  0  0  0  0  0  0  0  0  0  0
   -9.6556  -38.0307  -14.7616 C   0  0  0  0  0  0  0  0  0  0  0  0
  -13.3770  -39.7703  -12.5742 O   0  0  0  0  0  0  0  0  0  0  0  0
  -14.3011  -39.6376  -11.6900 N   0  0  0  0  0  0  0  0  0  0  0  0
  -22.1936  -37.9906   -6.8501 C   0  0  0  0  0  0  0  0  0  0  0  0
  -23.5024  -38.2153   -6.5349 C   0  0  0  0  0  0  0  0  0  0  0  0
  -24.8099  -37.2107   -7.1100 Cl  0  0  0  0  0  0  0  0  0  0  0  0
  -23.7239  -39.3003   -5.7227 C   0  0  0  0  0  0  0  0  0  0  0  0
  -25.0650  -39.5717   -5.3707 O   0  0  0  0  0  0  0  0  0  0  0  0
  1  2  1  0
  2  3  2  0
  3  4  1  0
  4  5  2  0
  5  6  1  0
  6  7  2  0
  6  8  1  0
  8  9  1  0
  9 10  1  0
 10 11  1  0
 11 12  1  0
 12 13  1  0
 13 14  1  0
 14 15  2  0
 15 16  1  0
 17 16  1  1
 17 18  1  0
 18 19  1  0
 19 20  2  0
 17 21  1  0
 21 22  1  6
 21 23  1  0
 23 24  1  0
 24 25  1  0
 25 26  1  0
 25 27  1  0
 25 28  1  0
 28 29  1  0
 29 30  2  0
 30 31  1  0
 31 32  1  0
 32 33  1  0
 32 34  1  0
 32 35  1  0
 30 36  1  0
 36 37  1  0
 15 38  1  0
 38 39  2  0
 39 40  1  0
 39 41  1  0
 41 42  1  0
  7  2  1  0
 19  4  1  0
 37 28  2  0
 41 13  2  0
M  END
$$$$
