
     RDKit          3D

 42 45  0  0  0  0  0  0  0  0999 V2000
  -17.9687  -46.5978   -6.6550 C   0  0  0  0  0  0  0  0  0  0  0  0
  -18.3652  -45.2876   -7.2335 C   0  0  0  0  0  0  0  0  0  0  0  0
  -17.5597  -44.1768   -7.1497 C   0  0  0  0  0  0  0  0  0  0  0  0
  -17.8899  -42.9015   -7.6844 C   0  0  0  0  0  0  0  0  0  0  0  0
  -19.0757  -42.7734   -8.3202 C   0  0  0  0  0  0  0  0  0  0  0  0
  -19.9187  -43.9005   -8.4162 C   0  0  0  0  0  0  0  0  0  0  0  0
  -19.5063  -45.0783   -7.8675 N   0  0  0  0  0  0  0  0  0  0  0  0
  -21.1388  -43.9870   -9.0033 O   0  0  0  0  0  0  0  0  0  0  0  0
  -22.4609  -44.0244   -8.9829 C   0  0  0  0  0  0  0  0  0  0  0  0
  -23.0434  -43.6108   -7.6004 C   0  0  0  0  0  0  0  0  0  0  0  0
  -21.9999  -42.8484   -6.8730 C   0  0  0  0  0  0  0  0  0  0  0  0
  -22.5533  -41.7639   -5.9759 C   0  0  0  0  0  0  0  0  0  0  0  0
  -21.7197  -40.4973   -6.1626 C   0  0  0  0  0  0  0  0  0  0  0  0
  -20.3520  -40.3705   -6.0485 C   0  0  0  0  0  0  0  0  0  0  0  0
  -19.7928  -39.1662   -6.4260 C   0  0  0  0  0  0  0  0  0  0  0  0
  -18.3682  -38.7534   -6.5247 C   0  0  0  0  0  0  0  0  0  0  0  0
  -17.5536  -39.4937   -7.5756 C   0  0  2  0  0  0  0  0  0  0  0  0
  -16.7800  -40.5851   -7.0391 N   0  0  0  0  0  0  0  0  0  0  0  0
  -16.8110  -41.9459   -7.3969 C   0  0  0  0  0  0  0  0  0  0  0  0
  -15.5647  -42.3932   -7.4684 O   0  0  0  0  0  0  0  0  0  0  0  0
  -16.5265  -38.4684   -8.0937 C   0  0  2  0  0  0  0  0  0  0  0  0
  -17.2390  -37.2782   -8.2162 O   0  0  0  0  0  0  0  0  0  0  0  0
  -15.9222  -38.9125   -9.3817 C   0  0  0  0  0  0  0  0  0  0  0  0
  -15.0848  -40.0483   -9.3443 N   0  0  0  0  0  0  0  0  0  0  0  0
  -13.6751  -39.8418   -9.5499 C   0  0  0  0  0  0  0  0  0  0  0  0
  -12.8543  -40.6067   -8.5195 C   0  0  0  0  0  0  0  0  0  0  0  0
  -13.2262  -38.4226   -9.5655 C   0  0  0  0  0  0  0  0  0  0  0  0
  -13.3297  -40.4801  -10.8707 C   0  0  0  0  0  0  0  0  0  0  0  0
  -13.9567  -40.3342  -12.0698 C   0  0  0  0  0  0  0  0  0  0  0  0
  -13.2772  -41.1325  -13.0033 C   0  0  0  0  0  0  0  0  0  0  0  0
  -13.6234  -41.2719  -14.4323 C   0  0  0  0  0  0  0  0  0  0  0  0
  -13.8848  -42.7030  -14.8463 C   0  0  0  0  0  0  0  0  0  0  0  0
  -15.0935  -43.2571  -14.1343 C   0  0  0  0  0  0  0  0  0  0  0  0
  -12.6780  -43.5344  -14.4554 C   0  0  0  0  0  0  0  0  0  0  0  0
  -14.0550  -42.8144  -16.3501 C   0  0  0  0  0  0  0  0  0  0  0  0
  -12.3019  -41.7028  -12.3356 O   0  0  0  0  0  0  0  0  0  0  0  0
  -12.3034  -41.3472  -11.0998 N   0  0  0  0  0  0  0  0  0  0  0  0
  -20.6442  -38.1336   -6.8941 C   0  0  0  0  0  0  0  0  0  0  0  0
  -22.0004  -38.2384   -7.0061 C   0  0  0  0  0  0  0  0  0  0  0  0
  -23.0148  -36.9393   -7.5834 Cl  0  0  0  0  0  0  0  0  0  0  0  0
  -22.5202  -39.4520   -6.6280 C   0  0  0  0  0  0  0  0  0  0  0  0
  -23.9211  -39.6061   -6.7280 O   0  0  0  0  0  0  0  0  0  0  0  0
  1  2  1  0
  2  3  2  0
  3  4  1  0
  4  5  2  0
  5  6  1  0
  6  7  2  0
  6  8  1  0
  8  9  1  0
  9 10  1  0
 10 11  1  0
 11 12  1  0
 12 13  1  0
 13 14  1  0
 14 15  2  0
 15 16  1  0
 17 16  1  1
 17 18  1  0
 18 19  1  0
 19 20  2  0
 17 21  1  0
 21 22  1  6
 21 23  1  0
 23 24  1  0
 24 25  1  0
 25 26  1  0
 25 27  1  0
 25 28  1  0
 28 29  1  0
 29 30  2  0
 30 31  1  0
 31 32  1  0
 32 33  1  0
 32 34  1  0
 32 35  1  0
 30 36  1  0
 36 37  1  0
 15 38  1  0
 38 39  2  0
 39 40  1  0
 39 41  1  0
 41 42  1  0
  7  2  1  0
 19  4  1  0
 37 28  2  0
 41 13  2  0
M  END
$$$$
