
     RDKit          3D

 42 45  0  0  0  0  0  0  0  0999 V2000
  -19.3082  -47.0976   -5.7892 C   0  0  0  0  0  0  0  0  0  0  0  0
  -19.3743  -45.7786   -6.4705 C   0  0  0  0  0  0  0  0  0  0  0  0
  -18.4363  -44.7966   -6.2566 C   0  0  0  0  0  0  0  0  0  0  0  0
  -18.4521  -43.5194   -6.8808 C   0  0  0  0  0  0  0  0  0  0  0  0
  -19.4568  -43.2536   -7.7451 C   0  0  0  0  0  0  0  0  0  0  0  0
  -20.4311  -44.2468   -7.9781 C   0  0  0  0  0  0  0  0  0  0  0  0
  -20.3231  -45.4393   -7.3263 N   0  0  0  0  0  0  0  0  0  0  0  0
  -21.5120  -44.1850   -8.7959 O   0  0  0  0  0  0  0  0  0  0  0  0
  -22.8021  -44.0247   -9.0404 C   0  0  0  0  0  0  0  0  0  0  0  0
  -23.5700  -43.4504   -7.8148 C   0  0  0  0  0  0  0  0  0  0  0  0
  -22.5813  -42.8106   -6.9133 C   0  0  0  0  0  0  0  0  0  0  0  0
  -23.1215  -41.6062   -6.1752 C   0  0  0  0  0  0  0  0  0  0  0  0
  -22.0794  -40.4902   -6.2246 C   0  0  0  0  0  0  0  0  0  0  0  0
  -20.7573  -40.5613   -5.8415 C   0  0  0  0  0  0  0  0  0  0  0  0
  -19.9536  -39.4769   -6.1313 C   0  0  0  0  0  0  0  0  0  0  0  0
  -18.4903  -39.2864   -5.9529 C   0  0  0  0  0  0  0  0  0  0  0  0
  -17.6133  -40.1986   -6.7984 C   0  0  2  0  0  0  0  0  0  0  0  0
  -17.1397  -41.3599   -6.0882 N   0  0  0  0  0  0  0  0  0  0  0  0
  -17.3135  -42.7194   -6.4082 C   0  0  0  0  0  0  0  0  0  0  0  0
  -16.1629  -43.3500   -6.2158 O   0  0  0  0  0  0  0  0  0  0  0  0
  -16.3573  -39.3684   -7.1269 C   0  0  2  0  0  0  0  0  0  0  0  0
  -16.8168  -38.3244   -7.9257 O   0  0  0  0  0  0  0  0  0  0  0  0
  -15.3225  -40.1995   -7.8051 C   0  0  0  0  0  0  0  0  0  0  0  0
  -14.5309  -39.5688   -8.7890 N   0  0  0  0  0  0  0  0  0  0  0  0
  -14.0226  -40.3875   -9.8584 C   0  0  0  0  0  0  0  0  0  0  0  0
  -15.1163  -41.2801  -10.4310 C   0  0  0  0  0  0  0  0  0  0  0  0
  -12.8417  -41.2289   -9.5218 C   0  0  0  0  0  0  0  0  0  0  0  0
  -13.6556  -39.4550  -10.9840 C   0  0  0  0  0  0  0  0  0  0  0  0
  -12.8495  -38.3591  -10.9452 C   0  0  0  0  0  0  0  0  0  0  0  0
  -12.8178  -37.8102  -12.2367 C   0  0  0  0  0  0  0  0  0  0  0  0
  -12.0619  -36.6088  -12.6446 C   0  0  0  0  0  0  0  0  0  0  0  0
  -11.2797  -36.8016  -13.9246 C   0  0  0  0  0  0  0  0  0  0  0  0
  -10.3034  -35.6711  -14.1344 C   0  0  0  0  0  0  0  0  0  0  0  0
  -12.2615  -36.8046  -15.0807 C   0  0  0  0  0  0  0  0  0  0  0  0
  -10.5577  -38.1363  -13.9282 C   0  0  0  0  0  0  0  0  0  0  0  0
  -13.5863  -38.5836  -12.9672 O   0  0  0  0  0  0  0  0  0  0  0  0
  -14.0865  -39.5443  -12.2740 N   0  0  0  0  0  0  0  0  0  0  0  0
  -20.5252  -38.3582   -6.7885 C   0  0  0  0  0  0  0  0  0  0  0  0
  -21.8331  -38.2669   -7.1678 C   0  0  0  0  0  0  0  0  0  0  0  0
  -22.4995  -36.8672   -7.9719 Cl  0  0  0  0  0  0  0  0  0  0  0  0
  -22.6003  -39.3662   -6.8693 C   0  0  0  0  0  0  0  0  0  0  0  0
  -23.9615  -39.3164   -7.2445 O   0  0  0  0  0  0  0  0  0  0  0  0
  1  2  1  0
  2  3  2  0
  3  4  1  0
  4  5  2  0
  5  6  1  0
  6  7  2  0
  6  8  1  0
  8  9  1  0
  9 10  1  0
 10 11  1  0
 11 12  1  0
 12 13  1  0
 13 14  1  0
 14 15  2  0
 15 16  1  0
 17 16  1  1
 17 18  1  0
 18 19  1  0
 19 20  2  0
 17 21  1  0
 21 22  1  6
 21 23  1  0
 23 24  1  0
 24 25  1  0
 25 26  1  0
 25 27  1  0
 25 28  1  0
 28 29  1  0
 29 30  2  0
 30 31  1  0
 31 32  1  0
 32 33  1  0
 32 34  1  0
 32 35  1  0
 30 36  1  0
 36 37  1  0
 15 38  1  0
 38 39  2  0
 39 40  1  0
 39 41  1  0
 41 42  1  0
  7  2  1  0
 19  4  1  0
 37 28  2  0
 41 13  2  0
M  END
$$$$
