
     RDKit          3D

 42 45  0  0  0  0  0  0  0  0999 V2000
  -17.7080  -47.0956   -7.7319 C   0  0  0  0  0  0  0  0  0  0  0  0
  -18.0417  -45.6766   -8.0208 C   0  0  0  0  0  0  0  0  0  0  0  0
  -17.3466  -44.6324   -7.4584 C   0  0  0  0  0  0  0  0  0  0  0  0
  -17.6236  -43.2590   -7.6999 C   0  0  0  0  0  0  0  0  0  0  0  0
  -18.6383  -42.9600   -8.5414 C   0  0  0  0  0  0  0  0  0  0  0  0
  -19.3659  -44.0165   -9.1283 C   0  0  0  0  0  0  0  0  0  0  0  0
  -19.0181  -45.3001   -8.8286 N   0  0  0  0  0  0  0  0  0  0  0  0
  -20.4117  -43.9372   -9.9890 O   0  0  0  0  0  0  0  0  0  0  0  0
  -21.6986  -43.9751  -10.2929 C   0  0  0  0  0  0  0  0  0  0  0  0
  -22.6061  -43.9501   -9.0290 C   0  0  0  0  0  0  0  0  0  0  0  0
  -21.8055  -43.4164   -7.9005 C   0  0  0  0  0  0  0  0  0  0  0  0
  -22.6152  -42.6142   -6.9064 C   0  0  0  0  0  0  0  0  0  0  0  0
  -21.8406  -41.3467   -6.5492 C   0  0  0  0  0  0  0  0  0  0  0  0
  -20.5457  -41.2594   -6.0852 C   0  0  0  0  0  0  0  0  0  0  0  0
  -19.9903  -39.9993   -5.9878 C   0  0  0  0  0  0  0  0  0  0  0  0
  -18.6091  -39.5793   -5.6337 C   0  0  0  0  0  0  0  0  0  0  0  0
  -17.5317  -40.0092   -6.6188 C   0  0  2  0  0  0  0  0  0  0  0  0
  -16.8357  -41.2073   -6.2221 N   0  0  0  0  0  0  0  0  0  0  0  0
  -16.7001  -42.4201   -6.9233 C   0  0  0  0  0  0  0  0  0  0  0  0
  -15.4453  -42.8347   -6.8131 O   0  0  0  0  0  0  0  0  0  0  0  0
  -16.4785  -38.8847   -6.5893 C   0  0  2  0  0  0  0  0  0  0  0  0
  -17.2113  -37.7048   -6.6909 O   0  0  0  0  0  0  0  0  0  0  0  0
  -15.4876  -39.0434   -7.6913 C   0  0  0  0  0  0  0  0  0  0  0  0
  -14.7383  -40.2393   -7.7185 N   0  0  0  0  0  0  0  0  0  0  0  0
  -13.8540  -40.4443   -8.8357 C   0  0  0  0  0  0  0  0  0  0  0  0
  -13.9698  -41.8658   -9.3711 C   0  0  0  0  0  0  0  0  0  0  0  0
  -12.4184  -40.1391   -8.5869 C   0  0  0  0  0  0  0  0  0  0  0  0
  -14.3552  -39.5676   -9.9543 C   0  0  0  0  0  0  0  0  0  0  0  0
  -14.4261  -38.2092   -9.9969 C   0  0  0  0  0  0  0  0  0  0  0  0
  -14.9690  -37.8517  -11.2410 C   0  0  0  0  0  0  0  0  0  0  0  0
  -15.2210  -36.4734  -11.7077 C   0  0  0  0  0  0  0  0  0  0  0  0
  -14.0837  -35.9025  -12.5251 C   0  0  0  0  0  0  0  0  0  0  0  0
  -12.8135  -36.6839  -12.2996 C   0  0  0  0  0  0  0  0  0  0  0  0
  -13.8508  -34.4730  -12.0743 C   0  0  0  0  0  0  0  0  0  0  0  0
  -14.4341  -35.8701  -14.0012 C   0  0  0  0  0  0  0  0  0  0  0  0
  -15.1911  -38.9837  -11.8668 O   0  0  0  0  0  0  0  0  0  0  0  0
  -14.8474  -39.9953  -11.1512 N   0  0  0  0  0  0  0  0  0  0  0  0
  -20.7741  -38.8762   -6.3544 C   0  0  0  0  0  0  0  0  0  0  0  0
  -22.0596  -38.9429   -6.8080 C   0  0  0  0  0  0  0  0  0  0  0  0
  -22.9931  -37.5332   -7.2450 Cl  0  0  0  0  0  0  0  0  0  0  0  0
  -22.5764  -40.2121   -6.8979 C   0  0  0  0  0  0  0  0  0  0  0  0
  -23.9050  -40.3295   -7.3639 O   0  0  0  0  0  0  0  0  0  0  0  0
  1  2  1  0
  2  3  2  0
  3  4  1  0
  4  5  2  0
  5  6  1  0
  6  7  2  0
  6  8  1  0
  8  9  1  0
  9 10  1  0
 10 11  1  0
 11 12  1  0
 12 13  1  0
 13 14  1  0
 14 15  2  0
 15 16  1  0
 17 16  1  1
 17 18  1  0
 18 19  1  0
 19 20  2  0
 17 21  1  0
 21 22  1  6
 21 23  1  0
 23 24  1  0
 24 25  1  0
 25 26  1  0
 25 27  1  0
 25 28  1  0
 28 29  1  0
 29 30  2  0
 30 31  1  0
 31 32  1  0
 32 33  1  0
 32 34  1  0
 32 35  1  0
 30 36  1  0
 36 37  1  0
 15 38  1  0
 38 39  2  0
 39 40  1  0
 39 41  1  0
 41 42  1  0
  7  2  1  0
 19  4  1  0
 37 28  2  0
 41 13  2  0
M  END
$$$$
