
     RDKit          3D

 42 45  0  0  0  0  0  0  0  0999 V2000
  -18.4516  -46.6046   -8.9697 C   0  0  0  0  0  0  0  0  0  0  0  0
  -17.6908  -45.3660   -9.2786 C   0  0  0  0  0  0  0  0  0  0  0  0
  -17.7961  -44.2315   -8.5094 C   0  0  0  0  0  0  0  0  0  0  0  0
  -17.0926  -43.0217   -8.7598 C   0  0  0  0  0  0  0  0  0  0  0  0
  -16.2620  -42.9855   -9.8255 C   0  0  0  0  0  0  0  0  0  0  0  0
  -16.1401  -44.1384  -10.6294 C   0  0  0  0  0  0  0  0  0  0  0  0
  -16.8613  -45.2478  -10.3012 N   0  0  0  0  0  0  0  0  0  0  0  0
  -15.3727  -44.3121  -11.7347 O   0  0  0  0  0  0  0  0  0  0  0  0
  -15.1803  -44.3822  -13.0416 C   0  0  0  0  0  0  0  0  0  0  0  0
  -16.4018  -43.8549  -13.8488 C   0  0  0  0  0  0  0  0  0  0  0  0
  -17.2120  -42.9998  -12.9477 C   0  0  0  0  0  0  0  0  0  0  0  0
  -17.8962  -41.8502  -13.6529 C   0  0  0  0  0  0  0  0  0  0  0  0
  -17.7254  -40.5856  -12.8130 C   0  0  0  0  0  0  0  0  0  0  0  0
  -18.0486  -40.4127  -11.4843 C   0  0  0  0  0  0  0  0  0  0  0  0
  -17.6517  -39.2352  -10.8828 C   0  0  0  0  0  0  0  0  0  0  0  0
  -17.7474  -38.7964   -9.4658 C   0  0  0  0  0  0  0  0  0  0  0  0
  -16.9213  -39.6113   -8.4811 C   0  0  2  0  0  0  0  0  0  0  0  0
  -17.6811  -40.6262   -7.7957 N   0  0  0  0  0  0  0  0  0  0  0  0
  -17.4579  -42.0152   -7.7531 C   0  0  0  0  0  0  0  0  0  0  0  0
  -17.6351  -42.4343   -6.5076 O   0  0  0  0  0  0  0  0  0  0  0  0
  -16.4804  -38.6130   -7.3932 C   0  0  2  0  0  0  0  0  0  0  0  0
  -15.4394  -39.2503   -6.7228 O   0  0  0  0  0  0  0  0  0  0  0  0
  -17.6142  -38.2600   -6.4924 C   0  0  0  0  0  0  0  0  0  0  0  0
  -18.7368  -39.1157   -6.5018 N   0  0  0  0  0  0  0  0  0  0  0  0
  -19.9996  -38.5600   -6.0912 C   0  0  0  0  0  0  0  0  0  0  0  0
  -20.7695  -38.0106   -7.2854 C   0  0  0  0  0  0  0  0  0  0  0  0
  -19.9308  -37.5098   -5.0384 C   0  0  0  0  0  0  0  0  0  0  0  0
  -20.8364  -39.7070   -5.5859 C   0  0  0  0  0  0  0  0  0  0  0  0
  -22.1058  -39.6759   -5.0961 C   0  0  0  0  0  0  0  0  0  0  0  0
  -22.4569  -40.9887   -4.7447 C   0  0  0  0  0  0  0  0  0  0  0  0
  -23.7507  -41.4110   -4.1712 C   0  0  0  0  0  0  0  0  0  0  0  0
  -24.7079  -41.9665   -5.2022 C   0  0  0  0  0  0  0  0  0  0  0  0
  -25.9383  -42.5372   -4.5422 C   0  0  0  0  0  0  0  0  0  0  0  0
  -24.0028  -43.0851   -5.9452 C   0  0  0  0  0  0  0  0  0  0  0  0
  -25.0917  -40.9069   -6.2184 C   0  0  0  0  0  0  0  0  0  0  0  0
  -21.4083  -41.7232   -5.0335 O   0  0  0  0  0  0  0  0  0  0  0  0
  -20.4536  -41.0135   -5.5218 N   0  0  0  0  0  0  0  0  0  0  0  0
  -16.9521  -38.2743  -11.6558 C   0  0  0  0  0  0  0  0  0  0  0  0
  -16.6306  -38.4248  -12.9736 C   0  0  0  0  0  0  0  0  0  0  0  0
  -15.7711  -37.2134  -13.8920 Cl  0  0  0  0  0  0  0  0  0  0  0  0
  -17.0355  -39.6103  -13.5363 C   0  0  0  0  0  0  0  0  0  0  0  0
  -16.7234  -39.8100  -14.8997 O   0  0  0  0  0  0  0  0  0  0  0  0
  1  2  1  0
  2  3  2  0
  3  4  1  0
  4  5  2  0
  5  6  1  0
  6  7  2  0
  6  8  1  0
  8  9  1  0
  9 10  1  0
 10 11  1  0
 11 12  1  0
 12 13  1  0
 13 14  1  0
 14 15  2  0
 15 16  1  0
 17 16  1  6
 17 18  1  0
 18 19  1  0
 19 20  2  0
 17 21  1  0
 21 22  1  1
 21 23  1  0
 23 24  1  0
 24 25  1  0
 25 26  1  0
 25 27  1  0
 25 28  1  0
 28 29  1  0
 29 30  2  0
 30 31  1  0
 31 32  1  0
 32 33  1  0
 32 34  1  0
 32 35  1  0
 30 36  1  0
 36 37  1  0
 15 38  1  0
 38 39  2  0
 39 40  1  0
 39 41  1  0
 41 42  1  0
  7  2  1  0
 19  4  1  0
 37 28  2  0
 41 13  2  0
M  END
$$$$
