
     RDKit          3D

 42 45  0  0  0  0  0  0  0  0999 V2000
  -18.3241  -46.3678   -8.4474 C   0  0  0  0  0  0  0  0  0  0  0  0
  -18.9403  -45.0155   -8.4583 C   0  0  0  0  0  0  0  0  0  0  0  0
  -18.2106  -43.8768   -8.2122 C   0  0  0  0  0  0  0  0  0  0  0  0
  -18.7491  -42.5610   -8.2101 C   0  0  0  0  0  0  0  0  0  0  0  0
  -20.0681  -42.4203   -8.4698 C   0  0  0  0  0  0  0  0  0  0  0  0
  -20.8361  -43.5761   -8.7236 C   0  0  0  0  0  0  0  0  0  0  0  0
  -20.2206  -44.7923   -8.7008 N   0  0  0  0  0  0  0  0  0  0  0  0
  -22.1619  -43.6574   -9.0002 O   0  0  0  0  0  0  0  0  0  0  0  0
  -23.4247  -43.8876   -8.6804 C   0  0  0  0  0  0  0  0  0  0  0  0
  -23.6361  -43.9914   -7.1422 C   0  0  0  0  0  0  0  0  0  0  0  0
  -22.4829  -43.3390   -6.4760 C   0  0  0  0  0  0  0  0  0  0  0  0
  -22.8379  -42.6610   -5.1716 C   0  0  0  0  0  0  0  0  0  0  0  0
  -22.1636  -41.2908   -5.1293 C   0  0  0  0  0  0  0  0  0  0  0  0
  -20.8261  -41.0097   -5.3078 C   0  0  0  0  0  0  0  0  0  0  0  0
  -20.4633  -39.6807   -5.3954 C   0  0  0  0  0  0  0  0  0  0  0  0
  -19.1459  -39.0583   -5.6895 C   0  0  0  0  0  0  0  0  0  0  0  0
  -18.6021  -39.3283   -7.0849 C   0  0  2  0  0  0  0  0  0  0  0  0
  -17.6481  -40.4077   -7.1308 N   0  0  0  0  0  0  0  0  0  0  0  0
  -17.6923  -41.5904   -7.8925 C   0  0  0  0  0  0  0  0  0  0  0  0
  -16.4870  -41.8134   -8.3983 O   0  0  0  0  0  0  0  0  0  0  0  0
  -17.8167  -38.0596   -7.4702 C   0  0  2  0  0  0  0  0  0  0  0  0
  -18.6987  -37.0076   -7.2364 O   0  0  0  0  0  0  0  0  0  0  0  0
  -17.3546  -38.1194   -8.8859 C   0  0  0  0  0  0  0  0  0  0  0  0
  -16.2652  -38.9696   -9.1741 N   0  0  0  0  0  0  0  0  0  0  0  0
  -15.6602  -38.8566  -10.4754 C   0  0  0  0  0  0  0  0  0  0  0  0
  -14.7398  -37.6448  -10.5472 C   0  0  0  0  0  0  0  0  0  0  0  0
  -16.6050  -38.8121  -11.6248 C   0  0  0  0  0  0  0  0  0  0  0  0
  -14.7479  -40.0453  -10.6361 C   0  0  0  0  0  0  0  0  0  0  0  0
  -14.3569  -40.6618  -11.7846 C   0  0  0  0  0  0  0  0  0  0  0  0
  -13.5131  -41.7256  -11.4287 C   0  0  0  0  0  0  0  0  0  0  0  0
  -12.8618  -42.6609  -12.3681 C   0  0  0  0  0  0  0  0  0  0  0  0
  -11.5231  -42.1674  -12.8700 C   0  0  0  0  0  0  0  0  0  0  0  0
  -10.4355  -42.4425  -11.8618 C   0  0  0  0  0  0  0  0  0  0  0  0
  -11.6192  -40.6670  -13.0706 C   0  0  0  0  0  0  0  0  0  0  0  0
  -11.1779  -42.7913  -14.2095 C   0  0  0  0  0  0  0  0  0  0  0  0
  -13.4415  -41.6955  -10.1186 O   0  0  0  0  0  0  0  0  0  0  0  0
  -14.1437  -40.7362   -9.6284 N   0  0  0  0  0  0  0  0  0  0  0  0
  -21.4701  -38.6883   -5.2875 C   0  0  0  0  0  0  0  0  0  0  0  0
  -22.7973  -38.9475   -5.1027 C   0  0  0  0  0  0  0  0  0  0  0  0
  -24.0063  -37.6944   -4.9698 Cl  0  0  0  0  0  0  0  0  0  0  0  0
  -23.1216  -40.2798   -5.0268 C   0  0  0  0  0  0  0  0  0  0  0  0
  -24.4855  -40.5957   -4.8365 O   0  0  0  0  0  0  0  0  0  0  0  0
  1  2  1  0
  2  3  2  0
  3  4  1  0
  4  5  2  0
  5  6  1  0
  6  7  2  0
  6  8  1  0
  8  9  1  0
  9 10  1  0
 10 11  1  0
 11 12  1  0
 12 13  1  0
 13 14  1  0
 14 15  2  0
 15 16  1  0
 17 16  1  1
 17 18  1  0
 18 19  1  0
 19 20  2  0
 17 21  1  0
 21 22  1  6
 21 23  1  0
 23 24  1  0
 24 25  1  0
 25 26  1  0
 25 27  1  0
 25 28  1  0
 28 29  1  0
 29 30  2  0
 30 31  1  0
 31 32  1  0
 32 33  1  0
 32 34  1  0
 32 35  1  0
 30 36  1  0
 36 37  1  0
 15 38  1  0
 38 39  2  0
 39 40  1  0
 39 41  1  0
 41 42  1  0
  7  2  1  0
 19  4  1  0
 37 28  2  0
 41 13  2  0
M  END
$$$$
