
     RDKit          3D

 42 45  0  0  0  0  0  0  0  0999 V2000
  -23.6648  -40.3488  -11.2806 C   0  0  0  0  0  0  0  0  0  0  0  0
  -22.8139  -40.7235  -10.1213 C   0  0  0  0  0  0  0  0  0  0  0  0
  -21.5101  -40.3034  -10.0045 C   0  0  0  0  0  0  0  0  0  0  0  0
  -20.6533  -40.6322   -8.9187 C   0  0  0  0  0  0  0  0  0  0  0  0
  -21.1557  -41.4091   -7.9333 C   0  0  0  0  0  0  0  0  0  0  0  0
  -22.4910  -41.8527   -8.0340 C   0  0  0  0  0  0  0  0  0  0  0  0
  -23.2274  -41.4799   -9.1190 N   0  0  0  0  0  0  0  0  0  0  0  0
  -23.1823  -42.6339   -7.1665 O   0  0  0  0  0  0  0  0  0  0  0  0
  -23.6956  -43.7840   -6.7617 C   0  0  0  0  0  0  0  0  0  0  0  0
  -23.1515  -44.9939   -7.5754 C   0  0  0  0  0  0  0  0  0  0  0  0
  -21.8865  -44.5761   -8.2272 C   0  0  0  0  0  0  0  0  0  0  0  0
  -20.8751  -45.6922   -8.3632 C   0  0  0  0  0  0  0  0  0  0  0  0
  -19.4997  -45.1618   -7.9619 C   0  0  0  0  0  0  0  0  0  0  0  0
  -18.8525  -44.0513   -8.4595 C   0  0  0  0  0  0  0  0  0  0  0  0
  -17.6871  -43.6613   -7.8306 C   0  0  0  0  0  0  0  0  0  0  0  0
  -16.8260  -42.4696   -8.0491 C   0  0  0  0  0  0  0  0  0  0  0  0
  -17.4801  -41.1336   -7.7280 C   0  0  2  0  0  0  0  0  0  0  0  0
  -18.0106  -40.4604   -8.8867 N   0  0  0  0  0  0  0  0  0  0  0  0
  -19.3288  -40.0310   -9.1292 C   0  0  0  0  0  0  0  0  0  0  0  0
  -19.2873  -38.8181   -9.6637 O   0  0  0  0  0  0  0  0  0  0  0  0
  -16.3412  -40.2353   -7.2077 C   0  0  2  0  0  0  0  0  0  0  0  0
  -16.3337  -40.4290   -5.8287 O   0  0  0  0  0  0  0  0  0  0  0  0
  -16.5601  -38.8108   -7.5875 C   0  0  0  0  0  0  0  0  0  0  0  0
  -17.1605  -38.5617   -8.8406 N   0  0  0  0  0  0  0  0  0  0  0  0
  -17.0487  -37.2311   -9.3783 C   0  0  0  0  0  0  0  0  0  0  0  0
  -16.8829  -36.2038   -8.2656 C   0  0  0  0  0  0  0  0  0  0  0  0
  -18.1601  -36.7998  -10.2698 C   0  0  0  0  0  0  0  0  0  0  0  0
  -15.7542  -37.1798  -10.1481 C   0  0  0  0  0  0  0  0  0  0  0  0
  -14.9876  -36.0943  -10.4418 C   0  0  0  0  0  0  0  0  0  0  0  0
  -13.8840  -36.5429  -11.1840 C   0  0  0  0  0  0  0  0  0  0  0  0
  -12.7964  -35.6937  -11.7105 C   0  0  0  0  0  0  0  0  0  0  0  0
  -13.0451  -35.2124  -13.1226 C   0  0  0  0  0  0  0  0  0  0  0  0
  -11.8191  -34.5374  -13.6851 C   0  0  0  0  0  0  0  0  0  0  0  0
  -14.1722  -34.1981  -13.0830 C   0  0  0  0  0  0  0  0  0  0  0  0
  -13.4830  -36.3548  -14.0202 C   0  0  0  0  0  0  0  0  0  0  0  0
  -14.0390  -37.8413  -11.2960 O   0  0  0  0  0  0  0  0  0  0  0  0
  -15.1101  -38.2424  -10.7084 N   0  0  0  0  0  0  0  0  0  0  0  0
  -17.2179  -44.4197   -6.7284 C   0  0  0  0  0  0  0  0  0  0  0  0
  -17.8408  -45.5259   -6.2273 C   0  0  0  0  0  0  0  0  0  0  0  0
  -17.2264  -46.4357   -4.8692 Cl  0  0  0  0  0  0  0  0  0  0  0  0
  -18.9997  -45.8800   -6.8735 C   0  0  0  0  0  0  0  0  0  0  0  0
  -19.6794  -47.0195   -6.3881 O   0  0  0  0  0  0  0  0  0  0  0  0
  1  2  1  0
  2  3  2  0
  3  4  1  0
  4  5  2  0
  5  6  1  0
  6  7  2  0
  6  8  1  0
  8  9  1  0
  9 10  1  0
 10 11  1  0
 11 12  1  0
 12 13  1  0
 13 14  1  0
 14 15  2  0
 15 16  1  0
 17 16  1  6
 17 18  1  0
 18 19  1  0
 19 20  2  0
 17 21  1  0
 21 22  1  1
 21 23  1  0
 23 24  1  0
 24 25  1  0
 25 26  1  0
 25 27  1  0
 25 28  1  0
 28 29  1  0
 29 30  2  0
 30 31  1  0
 31 32  1  0
 32 33  1  0
 32 34  1  0
 32 35  1  0
 30 36  1  0
 36 37  1  0
 15 38  1  0
 38 39  2  0
 39 40  1  0
 39 41  1  0
 41 42  1  0
  7  2  1  0
 19  4  1  0
 37 28  2  0
 41 13  2  0
M  END
$$$$
