
     RDKit          3D

 42 45  0  0  0  0  0  0  0  0999 V2000
  -19.7169  -47.0627   -7.0521 C   0  0  0  0  0  0  0  0  0  0  0  0
  -19.6974  -45.6410   -7.4843 C   0  0  0  0  0  0  0  0  0  0  0  0
  -18.7363  -44.7580   -7.0523 C   0  0  0  0  0  0  0  0  0  0  0  0
  -18.6713  -43.3900   -7.4337 C   0  0  0  0  0  0  0  0  0  0  0  0
  -19.6176  -42.9268   -8.2803 C   0  0  0  0  0  0  0  0  0  0  0  0
  -20.6143  -43.8157   -8.7347 C   0  0  0  0  0  0  0  0  0  0  0  0
  -20.5858  -45.1097   -8.3066 N   0  0  0  0  0  0  0  0  0  0  0  0
  -21.6469  -43.5579   -9.5763 O   0  0  0  0  0  0  0  0  0  0  0  0
  -22.9152  -43.2967   -9.8465 C   0  0  0  0  0  0  0  0  0  0  0  0
  -23.7257  -42.9174   -8.5733 C   0  0  0  0  0  0  0  0  0  0  0  0
  -22.7636  -42.4967   -7.5261 C   0  0  0  0  0  0  0  0  0  0  0  0
  -23.2973  -41.4212   -6.6066 C   0  0  0  0  0  0  0  0  0  0  0  0
  -22.2134  -40.3639   -6.4041 C   0  0  0  0  0  0  0  0  0  0  0  0
  -20.9172  -40.5638   -5.9802 C   0  0  0  0  0  0  0  0  0  0  0  0
  -20.0594  -39.4833   -6.0305 C   0  0  0  0  0  0  0  0  0  0  0  0
  -18.6017  -39.3960   -5.7534 C   0  0  0  0  0  0  0  0  0  0  0  0
  -17.7152  -40.1806   -6.7096 C   0  0  2  0  0  0  0  0  0  0  0  0
  -17.3237  -41.4714   -6.2018 N   0  0  0  0  0  0  0  0  0  0  0  0
  -17.5306  -42.7417   -6.7715 C   0  0  0  0  0  0  0  0  0  0  0  0
  -16.4162  -43.4491   -6.6446 O   0  0  0  0  0  0  0  0  0  0  0  0
  -16.4134  -39.3639   -6.8235 C   0  0  2  0  0  0  0  0  0  0  0  0
  -16.8189  -38.0331   -6.7618 O   0  0  0  0  0  0  0  0  0  0  0  0
  -15.6825  -39.6850   -8.0822 C   0  0  0  0  0  0  0  0  0  0  0  0
  -15.3466  -41.0375   -8.3066 N   0  0  0  0  0  0  0  0  0  0  0  0
  -14.0486  -41.3165   -8.8630 C   0  0  0  0  0  0  0  0  0  0  0  0
  -14.1535  -42.2771  -10.0407 C   0  0  0  0  0  0  0  0  0  0  0  0
  -13.0344  -41.8372   -7.9059 C   0  0  0  0  0  0  0  0  0  0  0  0
  -13.5443  -40.0275   -9.4591 C   0  0  0  0  0  0  0  0  0  0  0  0
  -13.7338  -39.5472  -10.7183 C   0  0  0  0  0  0  0  0  0  0  0  0
  -13.0665  -38.3155  -10.8072 C   0  0  0  0  0  0  0  0  0  0  0  0
  -13.0124  -37.4485  -12.0016 C   0  0  0  0  0  0  0  0  0  0  0  0
  -14.1179  -36.4171  -12.0411 C   0  0  0  0  0  0  0  0  0  0  0  0
  -14.0956  -35.5562  -10.8028 C   0  0  0  0  0  0  0  0  0  0  0  0
  -15.4448  -37.1504  -12.0885 C   0  0  0  0  0  0  0  0  0  0  0  0
  -14.0199  -35.5584  -13.2884 C   0  0  0  0  0  0  0  0  0  0  0  0
  -12.5237  -38.1229   -9.6279 O   0  0  0  0  0  0  0  0  0  0  0  0
  -12.7805  -39.0938   -8.8247 N   0  0  0  0  0  0  0  0  0  0  0  0
  -20.5531  -38.2394   -6.4985 C   0  0  0  0  0  0  0  0  0  0  0  0
  -21.8345  -38.0210   -6.9146 C   0  0  0  0  0  0  0  0  0  0  0  0
  -22.4044  -36.4701   -7.4801 Cl  0  0  0  0  0  0  0  0  0  0  0  0
  -22.6568  -39.1193   -6.8567 C   0  0  0  0  0  0  0  0  0  0  0  0
  -23.9932  -38.9399   -7.2786 O   0  0  0  0  0  0  0  0  0  0  0  0
  1  2  1  0
  2  3  2  0
  3  4  1  0
  4  5  2  0
  5  6  1  0
  6  7  2  0
  6  8  1  0
  8  9  1  0
  9 10  1  0
 10 11  1  0
 11 12  1  0
 12 13  1  0
 13 14  1  0
 14 15  2  0
 15 16  1  0
 17 16  1  1
 17 18  1  0
 18 19  1  0
 19 20  2  0
 17 21  1  0
 21 22  1  6
 21 23  1  0
 23 24  1  0
 24 25  1  0
 25 26  1  0
 25 27  1  0
 25 28  1  0
 28 29  1  0
 29 30  2  0
 30 31  1  0
 31 32  1  0
 32 33  1  0
 32 34  1  0
 32 35  1  0
 30 36  1  0
 36 37  1  0
 15 38  1  0
 38 39  2  0
 39 40  1  0
 39 41  1  0
 41 42  1  0
  7  2  1  0
 19  4  1  0
 37 28  2  0
 41 13  2  0
M  END
$$$$
