
     RDKit          3D

 42 45  0  0  0  0  0  0  0  0999 V2000
  -18.7345  -47.0929   -6.2302 C   0  0  0  0  0  0  0  0  0  0  0  0
  -19.0827  -45.7546   -6.7742 C   0  0  0  0  0  0  0  0  0  0  0  0
  -18.2711  -44.6591   -6.5978 C   0  0  0  0  0  0  0  0  0  0  0  0
  -18.5560  -43.3583   -7.0959 C   0  0  0  0  0  0  0  0  0  0  0  0
  -19.7019  -43.1880   -7.7921 C   0  0  0  0  0  0  0  0  0  0  0  0
  -20.5503  -44.2986   -7.9837 C   0  0  0  0  0  0  0  0  0  0  0  0
  -20.1831  -45.5038   -7.4628 N   0  0  0  0  0  0  0  0  0  0  0  0
  -21.7355  -44.3442   -8.6425 O   0  0  0  0  0  0  0  0  0  0  0  0
  -23.0570  -44.3648   -8.6989 C   0  0  0  0  0  0  0  0  0  0  0  0
  -23.7133  -44.0014   -7.3355 C   0  0  0  0  0  0  0  0  0  0  0  0
  -22.7050  -43.2840   -6.5182 C   0  0  0  0  0  0  0  0  0  0  0  0
  -23.2970  -42.2305   -5.6090 C   0  0  0  0  0  0  0  0  0  0  0  0
  -22.4402  -40.9686   -5.6940 C   0  0  0  0  0  0  0  0  0  0  0  0
  -21.0800  -40.8650   -5.4970 C   0  0  0  0  0  0  0  0  0  0  0  0
  -20.4869  -39.6535   -5.7907 C   0  0  0  0  0  0  0  0  0  0  0  0
  -19.0545  -39.2562   -5.7906 C   0  0  0  0  0  0  0  0  0  0  0  0
  -18.1890  -39.9629   -6.8238 C   0  0  2  0  0  0  0  0  0  0  0  0
  -17.4597  -41.0859   -6.2908 N   0  0  0  0  0  0  0  0  0  0  0  0
  -17.4849  -42.4301   -6.7071 C   0  0  0  0  0  0  0  0  0  0  0  0
  -16.2416  -42.8907   -6.7265 O   0  0  0  0  0  0  0  0  0  0  0  0
  -17.1226  -38.9306   -7.2386 C   0  0  2  0  0  0  0  0  0  0  0  0
  -17.5052  -38.5117   -8.5103 O   0  0  0  0  0  0  0  0  0  0  0  0
  -15.7565  -39.5262   -7.2156 C   0  0  0  0  0  0  0  0  0  0  0  0
  -14.8265  -39.0450   -8.1622 N   0  0  0  0  0  0  0  0  0  0  0  0
  -14.2361  -40.0029   -9.0602 C   0  0  0  0  0  0  0  0  0  0  0  0
  -15.2947  -40.6452   -9.9476 C   0  0  0  0  0  0  0  0  0  0  0  0
  -13.4295  -41.0770   -8.4187 C   0  0  0  0  0  0  0  0  0  0  0  0
  -13.3563  -39.2276  -10.0067 C   0  0  0  0  0  0  0  0  0  0  0  0
  -13.5689  -38.9484  -11.3216 C   0  0  0  0  0  0  0  0  0  0  0  0
  -12.4685  -38.2080  -11.7812 C   0  0  0  0  0  0  0  0  0  0  0  0
  -12.2870  -37.6956  -13.1544 C   0  0  0  0  0  0  0  0  0  0  0  0
  -12.4582  -36.1965  -13.2598 C   0  0  0  0  0  0  0  0  0  0  0  0
  -13.8138  -35.7725  -12.7521 C   0  0  0  0  0  0  0  0  0  0  0  0
  -12.3554  -35.8124  -14.7235 C   0  0  0  0  0  0  0  0  0  0  0  0
  -11.3575  -35.4669  -12.5123 C   0  0  0  0  0  0  0  0  0  0  0  0
  -11.6710  -38.0830  -10.7464 O   0  0  0  0  0  0  0  0  0  0  0  0
  -12.1543  -38.6609   -9.7042 N   0  0  0  0  0  0  0  0  0  0  0  0
  -21.2986  -38.5910   -6.2623 C   0  0  0  0  0  0  0  0  0  0  0  0
  -22.6472  -38.6729   -6.4557 C   0  0  0  0  0  0  0  0  0  0  0  0
  -23.6124  -37.3374   -7.0343 Cl  0  0  0  0  0  0  0  0  0  0  0  0
  -23.2012  -39.8941   -6.1596 C   0  0  0  0  0  0  0  0  0  0  0  0
  -24.5956  -40.0251   -6.3456 O   0  0  0  0  0  0  0  0  0  0  0  0
  1  2  1  0
  2  3  2  0
  3  4  1  0
  4  5  2  0
  5  6  1  0
  6  7  2  0
  6  8  1  0
  8  9  1  0
  9 10  1  0
 10 11  1  0
 11 12  1  0
 12 13  1  0
 13 14  1  0
 14 15  2  0
 15 16  1  0
 17 16  1  1
 17 18  1  0
 18 19  1  0
 19 20  2  0
 17 21  1  0
 21 22  1  6
 21 23  1  0
 23 24  1  0
 24 25  1  0
 25 26  1  0
 25 27  1  0
 25 28  1  0
 28 29  1  0
 29 30  2  0
 30 31  1  0
 31 32  1  0
 32 33  1  0
 32 34  1  0
 32 35  1  0
 30 36  1  0
 36 37  1  0
 15 38  1  0
 38 39  2  0
 39 40  1  0
 39 41  1  0
 41 42  1  0
  7  2  1  0
 19  4  1  0
 37 28  2  0
 41 13  2  0
M  END
$$$$
