
     RDKit          3D

 42 45  0  0  0  0  0  0  0  0999 V2000
  -18.0074  -39.0018   -2.8109 C   0  0  0  0  0  0  0  0  0  0  0  0
  -18.5262  -39.7267   -4.0000 C   0  0  0  0  0  0  0  0  0  0  0  0
  -17.9641  -39.5845   -5.2465 C   0  0  0  0  0  0  0  0  0  0  0  0
  -18.4202  -40.2529   -6.4155 C   0  0  0  0  0  0  0  0  0  0  0  0
  -19.4770  -41.0863   -6.2922 C   0  0  0  0  0  0  0  0  0  0  0  0
  -20.0701  -41.2458   -5.0222 C   0  0  0  0  0  0  0  0  0  0  0  0
  -19.5548  -40.5566   -3.9649 N   0  0  0  0  0  0  0  0  0  0  0  0
  -21.1297  -42.0226   -4.6835 O   0  0  0  0  0  0  0  0  0  0  0  0
  -22.4051  -42.2225   -4.3949 C   0  0  0  0  0  0  0  0  0  0  0  0
  -23.2899  -40.9891   -4.7382 C   0  0  0  0  0  0  0  0  0  0  0  0
  -22.5490  -40.1502   -5.7112 C   0  0  0  0  0  0  0  0  0  0  0  0
  -23.4412  -39.4350   -6.7009 C   0  0  0  0  0  0  0  0  0  0  0  0
  -22.8322  -39.5646   -8.0960 C   0  0  0  0  0  0  0  0  0  0  0  0
  -21.5530  -39.2310   -8.4857 C   0  0  0  0  0  0  0  0  0  0  0  0
  -21.1641  -39.5902   -9.7606 C   0  0  0  0  0  0  0  0  0  0  0  0
  -19.8439  -39.4756  -10.4341 C   0  0  0  0  0  0  0  0  0  0  0  0
  -18.7343  -40.3215   -9.8265 C   0  0  2  0  0  0  0  0  0  0  0  0
  -17.8833  -39.5894   -8.9226 N   0  0  0  0  0  0  0  0  0  0  0  0
  -17.6019  -39.8536   -7.5691 C   0  0  0  0  0  0  0  0  0  0  0  0
  -16.3025  -39.6838   -7.3659 O   0  0  0  0  0  0  0  0  0  0  0  0
  -17.8353  -40.7280  -11.0102 C   0  0  2  0  0  0  0  0  0  0  0  0
  -18.4992  -41.7920  -11.6154 O   0  0  0  0  0  0  0  0  0  0  0  0
  -16.4657  -41.0921  -10.5484 C   0  0  0  0  0  0  0  0  0  0  0  0
  -15.4431  -41.1219  -11.5210 N   0  0  0  0  0  0  0  0  0  0  0  0
  -14.2815  -40.3039  -11.2893 C   0  0  0  0  0  0  0  0  0  0  0  0
  -13.1607  -40.6588  -12.2580 C   0  0  0  0  0  0  0  0  0  0  0  0
  -13.7431  -40.3257   -9.9016 C   0  0  0  0  0  0  0  0  0  0  0  0
  -14.6663  -38.8907  -11.6440 C   0  0  0  0  0  0  0  0  0  0  0  0
  -14.2402  -37.7302  -11.0749 C   0  0  0  0  0  0  0  0  0  0  0  0
  -14.8822  -36.6723  -11.7374 C   0  0  0  0  0  0  0  0  0  0  0  0
  -14.7089  -35.2363  -11.4388 C   0  0  0  0  0  0  0  0  0  0  0  0
  -13.2940  -34.7479  -11.6560 C   0  0  0  0  0  0  0  0  0  0  0  0
  -13.1348  -34.1546  -13.0336 C   0  0  0  0  0  0  0  0  0  0  0  0
  -12.3615  -35.9383  -11.5385 C   0  0  0  0  0  0  0  0  0  0  0  0
  -12.8942  -33.7412  -10.5932 C   0  0  0  0  0  0  0  0  0  0  0  0
  -15.6418  -37.2356  -12.6474 O   0  0  0  0  0  0  0  0  0  0  0  0
  -15.5407  -38.5173  -12.6206 N   0  0  0  0  0  0  0  0  0  0  0  0
  -22.0919  -40.2641  -10.5943 C   0  0  0  0  0  0  0  0  0  0  0  0
  -23.3644  -40.5954  -10.2285 C   0  0  0  0  0  0  0  0  0  0  0  0
  -24.4788  -41.4224  -11.2887 Cl  0  0  0  0  0  0  0  0  0  0  0  0
  -23.7137  -40.2283   -8.9521 C   0  0  0  0  0  0  0  0  0  0  0  0
  -25.0225  -40.5519   -8.5297 O   0  0  0  0  0  0  0  0  0  0  0  0
  1  2  1  0
  2  3  2  0
  3  4  1  0
  4  5  2  0
  5  6  1  0
  6  7  2  0
  6  8  1  0
  8  9  1  0
  9 10  1  0
 10 11  1  0
 11 12  1  0
 12 13  1  0
 13 14  1  0
 14 15  2  0
 15 16  1  0
 17 16  1  6
 17 18  1  0
 18 19  1  0
 19 20  2  0
 17 21  1  0
 21 22  1  1
 21 23  1  0
 23 24  1  0
 24 25  1  0
 25 26  1  0
 25 27  1  0
 25 28  1  0
 28 29  1  0
 29 30  2  0
 30 31  1  0
 31 32  1  0
 32 33  1  0
 32 34  1  0
 32 35  1  0
 30 36  1  0
 36 37  1  0
 15 38  1  0
 38 39  2  0
 39 40  1  0
 39 41  1  0
 41 42  1  0
  7  2  1  0
 19  4  1  0
 37 28  2  0
 41 13  2  0
M  END
$$$$
