
     RDKit          3D

 42 45  0  0  0  0  0  0  0  0999 V2000
  -19.1929  -43.3909   -2.7245 C   0  0  0  0  0  0  0  0  0  0  0  0
  -19.5083  -42.9350   -4.1033 C   0  0  0  0  0  0  0  0  0  0  0  0
  -18.6554  -42.1305   -4.8210 C   0  0  0  0  0  0  0  0  0  0  0  0
  -18.9076  -41.6660   -6.1408 C   0  0  0  0  0  0  0  0  0  0  0  0
  -20.0639  -42.0430   -6.7305 C   0  0  0  0  0  0  0  0  0  0  0  0
  -20.9545  -42.8673   -6.0112 C   0  0  0  0  0  0  0  0  0  0  0  0
  -20.6161  -43.2564   -4.7492 N   0  0  0  0  0  0  0  0  0  0  0  0
  -22.1566  -43.3525   -6.4117 O   0  0  0  0  0  0  0  0  0  0  0  0
  -23.4790  -43.3546   -6.4460 C   0  0  0  0  0  0  0  0  0  0  0  0
  -24.0884  -42.0501   -5.8557 C   0  0  0  0  0  0  0  0  0  0  0  0
  -23.0360  -41.0052   -5.8701 C   0  0  0  0  0  0  0  0  0  0  0  0
  -23.5688  -39.6086   -6.0996 C   0  0  0  0  0  0  0  0  0  0  0  0
  -22.6714  -38.8995   -7.1124 C   0  0  0  0  0  0  0  0  0  0  0  0
  -21.3040  -38.7380   -7.0511 C   0  0  0  0  0  0  0  0  0  0  0  0
  -20.6770  -38.2103   -8.1620 C   0  0  0  0  0  0  0  0  0  0  0  0
  -19.2323  -38.0142   -8.4515 C   0  0  0  0  0  0  0  0  0  0  0  0
  -18.4175  -39.2946   -8.5645 C   0  0  2  0  0  0  0  0  0  0  0  0
  -17.7142  -39.6366   -7.3539 N   0  0  0  0  0  0  0  0  0  0  0  0
  -17.7960  -40.8168   -6.5913 C   0  0  0  0  0  0  0  0  0  0  0  0
  -16.5701  -41.1781   -6.2378 O   0  0  0  0  0  0  0  0  0  0  0  0
  -17.3269  -38.9941   -9.6109 C   0  0  2  0  0  0  0  0  0  0  0  0
  -17.9735  -39.0917  -10.8404 O   0  0  0  0  0  0  0  0  0  0  0  0
  -16.1825  -39.9408   -9.4857 C   0  0  0  0  0  0  0  0  0  0  0  0
  -15.4885  -39.9557   -8.2566 N   0  0  0  0  0  0  0  0  0  0  0  0
  -14.1129  -39.5313   -8.2650 C   0  0  0  0  0  0  0  0  0  0  0  0
  -13.1800  -40.6944   -7.9528 C   0  0  0  0  0  0  0  0  0  0  0  0
  -13.7829  -38.3941   -7.3630 C   0  0  0  0  0  0  0  0  0  0  0  0
  -13.7857  -39.1431   -9.6839 C   0  0  0  0  0  0  0  0  0  0  0  0
  -13.8849  -39.8986  -10.8114 C   0  0  0  0  0  0  0  0  0  0  0  0
  -13.4594  -39.1080  -11.8904 C   0  0  0  0  0  0  0  0  0  0  0  0
  -13.4050  -39.5348  -13.3032 C   0  0  0  0  0  0  0  0  0  0  0  0
  -11.9947  -39.7256  -13.8153 C   0  0  0  0  0  0  0  0  0  0  0  0
  -11.0583  -38.7137  -13.2035 C   0  0  0  0  0  0  0  0  0  0  0  0
  -12.0068  -39.5171  -15.3177 C   0  0  0  0  0  0  0  0  0  0  0  0
  -11.5025  -41.1360  -13.5487 C   0  0  0  0  0  0  0  0  0  0  0  0
  -13.1345  -37.9477  -11.3704 O   0  0  0  0  0  0  0  0  0  0  0  0
  -13.3111  -37.9339  -10.0967 N   0  0  0  0  0  0  0  0  0  0  0  0
  -21.4632  -37.8567   -9.2876 C   0  0  0  0  0  0  0  0  0  0  0  0
  -22.8181  -38.0019   -9.3632 C   0  0  0  0  0  0  0  0  0  0  0  0
  -23.7509  -37.5488  -10.7684 Cl  0  0  0  0  0  0  0  0  0  0  0  0
  -23.4063  -38.5356   -8.2429 C   0  0  0  0  0  0  0  0  0  0  0  0
  -24.8086  -38.7049   -8.2764 O   0  0  0  0  0  0  0  0  0  0  0  0
  1  2  1  0
  2  3  2  0
  3  4  1  0
  4  5  2  0
  5  6  1  0
  6  7  2  0
  6  8  1  0
  8  9  1  0
  9 10  1  0
 10 11  1  0
 11 12  1  0
 12 13  1  0
 13 14  1  0
 14 15  2  0
 15 16  1  0
 17 16  1  1
 17 18  1  0
 18 19  1  0
 19 20  2  0
 17 21  1  0
 21 22  1  6
 21 23  1  0
 23 24  1  0
 24 25  1  0
 25 26  1  0
 25 27  1  0
 25 28  1  0
 28 29  1  0
 29 30  2  0
 30 31  1  0
 31 32  1  0
 32 33  1  0
 32 34  1  0
 32 35  1  0
 30 36  1  0
 36 37  1  0
 15 38  1  0
 38 39  2  0
 39 40  1  0
 39 41  1  0
 41 42  1  0
  7  2  1  0
 19  4  1  0
 37 28  2  0
 41 13  2  0
M  END
$$$$
