
     RDKit          3D

 42 45  0  0  0  0  0  0  0  0999 V2000
  -17.9393  -45.8464   -4.1878 C   0  0  0  0  0  0  0  0  0  0  0  0
  -18.5952  -44.9256   -5.1523 C   0  0  0  0  0  0  0  0  0  0  0  0
  -17.9399  -43.8453   -5.6941 C   0  0  0  0  0  0  0  0  0  0  0  0
  -18.5191  -42.9343   -6.6191 C   0  0  0  0  0  0  0  0  0  0  0  0
  -19.8007  -43.1461   -6.9927 C   0  0  0  0  0  0  0  0  0  0  0  0
  -20.4924  -44.2481   -6.4475 C   0  0  0  0  0  0  0  0  0  0  0  0
  -19.8433  -45.0611   -5.5665 N   0  0  0  0  0  0  0  0  0  0  0  0
  -21.7712  -44.6352   -6.6838 O   0  0  0  0  0  0  0  0  0  0  0  0
  -23.0549  -44.7259   -6.3777 C   0  0  0  0  0  0  0  0  0  0  0  0
  -23.4483  -43.7955   -5.1940 C   0  0  0  0  0  0  0  0  0  0  0  0
  -22.4075  -42.7462   -5.0704 C   0  0  0  0  0  0  0  0  0  0  0  0
  -22.9414  -41.4128   -4.5969 C   0  0  0  0  0  0  0  0  0  0  0  0
  -22.3242  -40.3048   -5.4485 C   0  0  0  0  0  0  0  0  0  0  0  0
  -20.9853  -40.0741   -5.6804 C   0  0  0  0  0  0  0  0  0  0  0  0
  -20.6599  -39.1166   -6.6201 C   0  0  0  0  0  0  0  0  0  0  0  0
  -19.3384  -38.7145   -7.1691 C   0  0  0  0  0  0  0  0  0  0  0  0
  -18.6200  -39.7886   -7.9729 C   0  0  2  0  0  0  0  0  0  0  0  0
  -17.6314  -40.5106   -7.2122 N   0  0  0  0  0  0  0  0  0  0  0  0
  -17.5424  -41.8947   -6.9729 C   0  0  0  0  0  0  0  0  0  0  0  0
  -16.2776  -42.2679   -7.1123 O   0  0  0  0  0  0  0  0  0  0  0  0
  -17.8372  -39.0294   -9.0617 C   0  0  2  0  0  0  0  0  0  0  0  0
  -18.7539  -38.8342  -10.0917 O   0  0  0  0  0  0  0  0  0  0  0  0
  -16.6363  -39.7968   -9.4980 C   0  0  0  0  0  0  0  0  0  0  0  0
  -15.4489  -39.0664   -9.7198 N   0  0  0  0  0  0  0  0  0  0  0  0
  -15.3596  -38.2951  -10.9320 C   0  0  0  0  0  0  0  0  0  0  0  0
  -16.0333  -36.9387  -10.7679 C   0  0  0  0  0  0  0  0  0  0  0  0
  -15.8933  -38.9527  -12.1561 C   0  0  0  0  0  0  0  0  0  0  0  0
  -13.9008  -37.9797  -11.1409 C   0  0  0  0  0  0  0  0  0  0  0  0
  -13.3378  -36.8047  -11.5338 C   0  0  0  0  0  0  0  0  0  0  0  0
  -11.9490  -36.9995  -11.5951 C   0  0  0  0  0  0  0  0  0  0  0  0
  -10.9516  -35.9804  -11.9794 C   0  0  0  0  0  0  0  0  0  0  0  0
   -9.7143  -36.5681  -12.6208 C   0  0  0  0  0  0  0  0  0  0  0  0
   -8.8102  -37.1838  -11.5822 C   0  0  0  0  0  0  0  0  0  0  0  0
   -8.9592  -35.4443  -13.3047 C   0  0  0  0  0  0  0  0  0  0  0  0
  -10.0811  -37.5902  -13.6807 C   0  0  0  0  0  0  0  0  0  0  0  0
  -11.7528  -38.2491  -11.2450 O   0  0  0  0  0  0  0  0  0  0  0  0
  -12.8603  -38.8445  -10.9757 N   0  0  0  0  0  0  0  0  0  0  0  0
  -21.7055  -38.4227   -7.2799 C   0  0  0  0  0  0  0  0  0  0  0  0
  -23.0358  -38.6320   -7.0576 C   0  0  0  0  0  0  0  0  0  0  0  0
  -24.2938  -37.7514   -7.8891 Cl  0  0  0  0  0  0  0  0  0  0  0  0
  -23.3214  -39.5956   -6.1216 C   0  0  0  0  0  0  0  0  0  0  0  0
  -24.6868  -39.8467   -5.8593 O   0  0  0  0  0  0  0  0  0  0  0  0
  1  2  1  0
  2  3  2  0
  3  4  1  0
  4  5  2  0
  5  6  1  0
  6  7  2  0
  6  8  1  0
  8  9  1  0
  9 10  1  0
 10 11  1  0
 11 12  1  0
 12 13  1  0
 13 14  1  0
 14 15  2  0
 15 16  1  0
 17 16  1  1
 17 18  1  0
 18 19  1  0
 19 20  2  0
 17 21  1  0
 21 22  1  6
 21 23  1  0
 23 24  1  0
 24 25  1  0
 25 26  1  0
 25 27  1  0
 25 28  1  0
 28 29  1  0
 29 30  2  0
 30 31  1  0
 31 32  1  0
 32 33  1  0
 32 34  1  0
 32 35  1  0
 30 36  1  0
 36 37  1  0
 15 38  1  0
 38 39  2  0
 39 40  1  0
 39 41  1  0
 41 42  1  0
  7  2  1  0
 19  4  1  0
 37 28  2  0
 41 13  2  0
M  END
$$$$
