
     RDKit          3D

 42 45  0  0  0  0  0  0  0  0999 V2000
  -19.1172  -44.4630   -3.0467 C   0  0  0  0  0  0  0  0  0  0  0  0
  -19.5043  -43.7224   -4.2755 C   0  0  0  0  0  0  0  0  0  0  0  0
  -18.6577  -42.8300   -4.8894 C   0  0  0  0  0  0  0  0  0  0  0  0
  -18.9772  -42.0961   -6.0644 C   0  0  0  0  0  0  0  0  0  0  0  0
  -20.1955  -42.2908   -6.6164 C   0  0  0  0  0  0  0  0  0  0  0  0
  -21.0806  -43.2011   -6.0017 C   0  0  0  0  0  0  0  0  0  0  0  0
  -20.6750  -43.8537   -4.8756 N   0  0  0  0  0  0  0  0  0  0  0  0
  -22.3373  -43.5379   -6.3866 O   0  0  0  0  0  0  0  0  0  0  0  0
  -23.6561  -43.4709   -6.3078 C   0  0  0  0  0  0  0  0  0  0  0  0
  -24.1365  -42.2861   -5.4205 C   0  0  0  0  0  0  0  0  0  0  0  0
  -23.0241  -41.3107   -5.3169 C   0  0  0  0  0  0  0  0  0  0  0  0
  -23.4831  -39.8731   -5.2184 C   0  0  0  0  0  0  0  0  0  0  0  0
  -22.6202  -39.0162   -6.1432 C   0  0  0  0  0  0  0  0  0  0  0  0
  -21.2446  -38.9350   -6.1678 C   0  0  0  0  0  0  0  0  0  0  0  0
  -20.6694  -38.2229   -7.2012 C   0  0  0  0  0  0  0  0  0  0  0  0
  -19.2406  -38.0403   -7.5682 C   0  0  0  0  0  0  0  0  0  0  0  0
  -18.5190  -39.3080   -8.0020 C   0  0  2  0  0  0  0  0  0  0  0  0
  -17.7510  -39.9212   -6.9478 N   0  0  0  0  0  0  0  0  0  0  0  0
  -17.8505  -41.2264   -6.4305 C   0  0  0  0  0  0  0  0  0  0  0  0
  -16.6271  -41.7091   -6.2615 O   0  0  0  0  0  0  0  0  0  0  0  0
  -17.4921  -38.8530   -9.0570 C   0  0  2  0  0  0  0  0  0  0  0  0
  -18.2478  -38.2308  -10.0475 O   0  0  0  0  0  0  0  0  0  0  0  0
  -16.7025  -40.0062   -9.5749 C   0  0  0  0  0  0  0  0  0  0  0  0
  -15.6320  -40.4657   -8.7777 N   0  0  0  0  0  0  0  0  0  0  0  0
  -14.3478  -40.6145   -9.4109 C   0  0  0  0  0  0  0  0  0  0  0  0
  -14.2349  -41.9644  -10.1078 C   0  0  0  0  0  0  0  0  0  0  0  0
  -13.1660  -40.4298   -8.5249 C   0  0  0  0  0  0  0  0  0  0  0  0
  -14.2906  -39.5991  -10.5231 C   0  0  0  0  0  0  0  0  0  0  0  0
  -14.2411  -38.2425  -10.4276 C   0  0  0  0  0  0  0  0  0  0  0  0
  -14.2082  -37.7264  -11.7325 C   0  0  0  0  0  0  0  0  0  0  0  0
  -14.1512  -36.2952  -12.0925 C   0  0  0  0  0  0  0  0  0  0  0  0
  -12.7397  -35.7732  -12.2430 C   0  0  0  0  0  0  0  0  0  0  0  0
  -12.7346  -34.2735  -12.4039 C   0  0  0  0  0  0  0  0  0  0  0  0
  -12.1405  -36.3891  -13.4929 C   0  0  0  0  0  0  0  0  0  0  0  0
  -11.8760  -36.1854  -11.0654 C   0  0  0  0  0  0  0  0  0  0  0  0
  -14.2387  -38.7717  -12.5256 O   0  0  0  0  0  0  0  0  0  0  0  0
  -14.2866  -39.8702  -11.8589 N   0  0  0  0  0  0  0  0  0  0  0  0
  -21.5129  -37.6118   -8.1631 C   0  0  0  0  0  0  0  0  0  0  0  0
  -22.8762  -37.6748   -8.1502 C   0  0  0  0  0  0  0  0  0  0  0  0
  -23.8800  -36.9027   -9.3528 Cl  0  0  0  0  0  0  0  0  0  0  0  0
  -23.4123  -38.3964   -7.1121 C   0  0  0  0  0  0  0  0  0  0  0  0
  -24.8211  -38.4893   -7.0589 O   0  0  0  0  0  0  0  0  0  0  0  0
  1  2  1  0
  2  3  2  0
  3  4  1  0
  4  5  2  0
  5  6  1  0
  6  7  2  0
  6  8  1  0
  8  9  1  0
  9 10  1  0
 10 11  1  0
 11 12  1  0
 12 13  1  0
 13 14  1  0
 14 15  2  0
 15 16  1  0
 17 16  1  1
 17 18  1  0
 18 19  1  0
 19 20  2  0
 17 21  1  0
 21 22  1  6
 21 23  1  0
 23 24  1  0
 24 25  1  0
 25 26  1  0
 25 27  1  0
 25 28  1  0
 28 29  1  0
 29 30  2  0
 30 31  1  0
 31 32  1  0
 32 33  1  0
 32 34  1  0
 32 35  1  0
 30 36  1  0
 36 37  1  0
 15 38  1  0
 38 39  2  0
 39 40  1  0
 39 41  1  0
 41 42  1  0
  7  2  1  0
 19  4  1  0
 37 28  2  0
 41 13  2  0
M  END
$$$$
