
     RDKit          3D

 42 45  0  0  0  0  0  0  0  0999 V2000
  -23.0393  -44.4208   -8.9311 C   0  0  0  0  0  0  0  0  0  0  0  0
  -22.3615  -43.2160   -9.4766 C   0  0  0  0  0  0  0  0  0  0  0  0
  -21.1109  -42.8276   -9.0583 C   0  0  0  0  0  0  0  0  0  0  0  0
  -20.4182  -41.6858   -9.5460 C   0  0  0  0  0  0  0  0  0  0  0  0
  -21.0304  -40.9322  -10.4863 C   0  0  0  0  0  0  0  0  0  0  0  0
  -22.3150  -41.3119  -10.9286 C   0  0  0  0  0  0  0  0  0  0  0  0
  -22.8914  -42.4260  -10.3947 N   0  0  0  0  0  0  0  0  0  0  0  0
  -23.0981  -40.7003  -11.8526 O   0  0  0  0  0  0  0  0  0  0  0  0
  -24.0998  -39.9201  -12.2236 C   0  0  0  0  0  0  0  0  0  0  0  0
  -24.6700  -39.0859  -11.0400 C   0  0  0  0  0  0  0  0  0  0  0  0
  -23.6421  -39.0441   -9.9718 C   0  0  0  0  0  0  0  0  0  0  0  0
  -23.6403  -37.7558   -9.1797 C   0  0  0  0  0  0  0  0  0  0  0  0
  -22.1961  -37.2925   -8.9962 C   0  0  0  0  0  0  0  0  0  0  0  0
  -21.1444  -38.0155   -8.4756 C   0  0  0  0  0  0  0  0  0  0  0  0
  -19.8857  -37.4548   -8.5599 C   0  0  0  0  0  0  0  0  0  0  0  0
  -18.5559  -38.0120   -8.1987 C   0  0  0  0  0  0  0  0  0  0  0  0
  -18.1102  -39.2071   -9.0288 C   0  0  2  0  0  0  0  0  0  0  0  0
  -18.3643  -40.4752   -8.3927 N   0  0  0  0  0  0  0  0  0  0  0  0
  -19.1200  -41.5632   -8.8681 C   0  0  0  0  0  0  0  0  0  0  0  0
  -18.4569  -42.6829   -8.6127 O   0  0  0  0  0  0  0  0  0  0  0  0
  -16.5769  -39.0881   -9.1264 C   0  0  2  0  0  0  0  0  0  0  0  0
  -16.3502  -37.8375   -9.6954 O   0  0  0  0  0  0  0  0  0  0  0  0
  -15.9989  -40.2005   -9.9326 C   0  0  0  0  0  0  0  0  0  0  0  0
  -15.7350  -41.4143   -9.2621 N   0  0  0  0  0  0  0  0  0  0  0  0
  -15.4322  -41.3450   -7.8565 C   0  0  0  0  0  0  0  0  0  0  0  0
  -15.6062  -39.9265   -7.3290 C   0  0  0  0  0  0  0  0  0  0  0  0
  -14.0869  -41.8441   -7.4607 C   0  0  0  0  0  0  0  0  0  0  0  0
  -16.4850  -42.1544   -7.1439 C   0  0  0  0  0  0  0  0  0  0  0  0
  -17.7347  -41.7704   -6.7661 C   0  0  0  0  0  0  0  0  0  0  0  0
  -18.3396  -42.8645   -6.1278 C   0  0  0  0  0  0  0  0  0  0  0  0
  -19.7026  -42.8853   -5.5593 C   0  0  0  0  0  0  0  0  0  0  0  0
  -19.7861  -43.6120   -4.2354 C   0  0  0  0  0  0  0  0  0  0  0  0
  -18.6922  -44.6437   -4.1176 C   0  0  0  0  0  0  0  0  0  0  0  0
  -21.1233  -44.3252   -4.1731 C   0  0  0  0  0  0  0  0  0  0  0  0
  -19.7272  -42.6384   -3.0729 C   0  0  0  0  0  0  0  0  0  0  0  0
  -17.4463  -43.8255   -6.1536 O   0  0  0  0  0  0  0  0  0  0  0  0
  -16.3625  -43.4485   -6.7340 N   0  0  0  0  0  0  0  0  0  0  0  0
  -19.7447  -36.1776   -9.1591 C   0  0  0  0  0  0  0  0  0  0  0  0
  -20.7749  -35.4442   -9.6724 C   0  0  0  0  0  0  0  0  0  0  0  0
  -20.5590  -33.8707  -10.3986 Cl  0  0  0  0  0  0  0  0  0  0  0  0
  -22.0105  -36.0360   -9.5769 C   0  0  0  0  0  0  0  0  0  0  0  0
  -23.1074  -35.3128  -10.0963 O   0  0  0  0  0  0  0  0  0  0  0  0
  1  2  1  0
  2  3  2  0
  3  4  1  0
  4  5  2  0
  5  6  1  0
  6  7  2  0
  6  8  1  0
  8  9  1  0
  9 10  1  0
 10 11  1  0
 11 12  1  0
 12 13  1  0
 13 14  1  0
 14 15  2  0
 15 16  1  0
 17 16  1  1
 17 18  1  0
 18 19  1  0
 19 20  2  0
 17 21  1  0
 21 22  1  6
 21 23  1  0
 23 24  1  0
 24 25  1  0
 25 26  1  0
 25 27  1  0
 25 28  1  0
 28 29  1  0
 29 30  2  0
 30 31  1  0
 31 32  1  0
 32 33  1  0
 32 34  1  0
 32 35  1  0
 30 36  1  0
 36 37  1  0
 15 38  1  0
 38 39  2  0
 39 40  1  0
 39 41  1  0
 41 42  1  0
  7  2  1  0
 19  4  1  0
 37 28  2  0
 41 13  2  0
M  END
$$$$
