
     RDKit          3D

 42 45  0  0  0  0  0  0  0  0999 V2000
  -20.9768  -41.1080   -1.9510 C   0  0  0  0  0  0  0  0  0  0  0  0
  -21.0685  -41.3863   -3.4078 C   0  0  0  0  0  0  0  0  0  0  0  0
  -19.9564  -41.4377   -4.2145 C   0  0  0  0  0  0  0  0  0  0  0  0
  -19.9875  -41.6993   -5.6115 C   0  0  0  0  0  0  0  0  0  0  0  0
  -21.1924  -41.9141   -6.1851 C   0  0  0  0  0  0  0  0  0  0  0  0
  -22.3469  -41.8643   -5.3759 C   0  0  0  0  0  0  0  0  0  0  0  0
  -22.2061  -41.6046   -4.0451 N   0  0  0  0  0  0  0  0  0  0  0  0
  -23.6391  -42.0460   -5.7473 O   0  0  0  0  0  0  0  0  0  0  0  0
  -24.8479  -41.6171   -6.0712 C   0  0  0  0  0  0  0  0  0  0  0  0
  -24.8792  -40.0853   -6.3434 C   0  0  0  0  0  0  0  0  0  0  0  0
  -23.4928  -39.6420   -6.6281 C   0  0  0  0  0  0  0  0  0  0  0  0
  -23.4100  -38.5038   -7.6204 C   0  0  0  0  0  0  0  0  0  0  0  0
  -22.2938  -38.8020   -8.6199 C   0  0  0  0  0  0  0  0  0  0  0  0
  -20.9794  -39.1085   -8.3406 C   0  0  0  0  0  0  0  0  0  0  0  0
  -20.1831  -39.5077   -9.3953 C   0  0  0  0  0  0  0  0  0  0  0  0
  -18.7811  -40.0014   -9.4118 C   0  0  0  0  0  0  0  0  0  0  0  0
  -18.5563  -41.3288   -8.7022 C   0  0  2  0  0  0  0  0  0  0  0  0
  -18.0625  -41.1841   -7.3560 N   0  0  0  0  0  0  0  0  0  0  0  0
  -18.6230  -41.6610   -6.1563 C   0  0  0  0  0  0  0  0  0  0  0  0
  -17.6527  -42.1673   -5.4076 O   0  0  0  0  0  0  0  0  0  0  0  0
  -17.4293  -42.0266   -9.4881 C   0  0  2  0  0  0  0  0  0  0  0  0
  -17.9431  -43.2790   -9.8153 O   0  0  0  0  0  0  0  0  0  0  0  0
  -16.1794  -42.1105   -8.6806 C   0  0  0  0  0  0  0  0  0  0  0  0
  -15.4247  -40.9266   -8.5341 N   0  0  0  0  0  0  0  0  0  0  0  0
  -14.4002  -40.6663   -9.5112 C   0  0  0  0  0  0  0  0  0  0  0  0
  -14.5795  -41.5489  -10.7399 C   0  0  0  0  0  0  0  0  0  0  0  0
  -12.9986  -40.7948   -9.0266 C   0  0  0  0  0  0  0  0  0  0  0  0
  -14.6202  -39.2610  -10.0090 C   0  0  0  0  0  0  0  0  0  0  0  0
  -14.1457  -38.6828  -11.1460 C   0  0  0  0  0  0  0  0  0  0  0  0
  -14.6099  -37.3584  -11.1738 C   0  0  0  0  0  0  0  0  0  0  0  0
  -14.3307  -36.3691  -12.2342 C   0  0  0  0  0  0  0  0  0  0  0  0
  -14.4218  -34.9377  -11.7542 C   0  0  0  0  0  0  0  0  0  0  0  0
  -15.8227  -34.6099  -11.3012 C   0  0  0  0  0  0  0  0  0  0  0  0
  -14.0710  -34.0280  -12.9161 C   0  0  0  0  0  0  0  0  0  0  0  0
  -13.4259  -34.6702  -10.6410 C   0  0  0  0  0  0  0  0  0  0  0  0
  -15.3213  -37.2114  -10.0807 O   0  0  0  0  0  0  0  0  0  0  0  0
  -15.3479  -38.2923   -9.3846 N   0  0  0  0  0  0  0  0  0  0  0  0
  -20.7486  -39.5699  -10.6939 C   0  0  0  0  0  0  0  0  0  0  0  0
  -22.0449  -39.2628  -10.9904 C   0  0  0  0  0  0  0  0  0  0  0  0
  -22.7017  -39.3479  -12.6063 Cl  0  0  0  0  0  0  0  0  0  0  0  0
  -22.8082  -38.8762   -9.9162 C   0  0  0  0  0  0  0  0  0  0  0  0
  -24.1579  -38.5492  -10.1760 O   0  0  0  0  0  0  0  0  0  0  0  0
  1  2  1  0
  2  3  2  0
  3  4  1  0
  4  5  2  0
  5  6  1  0
  6  7  2  0
  6  8  1  0
  8  9  1  0
  9 10  1  0
 10 11  1  0
 11 12  1  0
 12 13  1  0
 13 14  1  0
 14 15  2  0
 15 16  1  0
 17 16  1  6
 17 18  1  0
 18 19  1  0
 19 20  2  0
 17 21  1  0
 21 22  1  1
 21 23  1  0
 23 24  1  0
 24 25  1  0
 25 26  1  0
 25 27  1  0
 25 28  1  0
 28 29  1  0
 29 30  2  0
 30 31  1  0
 31 32  1  0
 32 33  1  0
 32 34  1  0
 32 35  1  0
 30 36  1  0
 36 37  1  0
 15 38  1  0
 38 39  2  0
 39 40  1  0
 39 41  1  0
 41 42  1  0
  7  2  1  0
 19  4  1  0
 37 28  2  0
 41 13  2  0
M  END
$$$$
