
     RDKit          3D

 34 35  0  0  0  0  0  0  0  0999 V2000
  -13.7932  -32.8012  -12.5764 C   0  0  0  0  0  0  0  0  0  0  0  0
  -13.8430  -34.2929  -12.5954 C   0  0  0  0  0  0  0  0  0  0  0  0
  -13.3420  -34.9340  -11.3335 C   0  0  0  0  0  0  0  0  0  0  0  0
  -13.4306  -36.4168  -11.5015 C   0  0  0  0  0  0  0  0  0  0  0  0
  -13.6806  -37.3433  -10.5120 C   0  0  0  0  0  0  0  0  0  0  0  0
  -13.6728  -38.5729  -11.1037 C   0  0  0  0  0  0  0  0  0  0  0  0
  -13.8921  -39.9175  -10.4722 C   0  0  0  0  0  0  0  0  0  0  0  0
  -14.2548  -39.7333   -9.0802 N   0  0  0  0  0  0  0  0  0  0  0  0
  -15.2410  -40.6852   -8.6726 C   0  0  0  0  0  0  0  0  0  0  0  0
  -16.6297  -40.2187   -8.8729 C   0  0  1  0  0  0  0  0  0  0  0  0
  -16.8140  -39.7594  -10.1773 O   0  0  0  0  0  0  0  0  0  0  0  0
  -17.7276  -41.0974   -8.3910 C   0  0  2  0  0  0  0  0  0  0  0  0
  -19.0608  -40.5224   -8.1694 C   0  0  0  0  0  0  0  0  0  0  0  0
  -19.2251  -39.2108   -7.5308 C   0  0  2  0  0  0  0  0  0  0  0  0
  -18.9659  -39.1371   -6.0481 C   0  0  0  0  0  0  0  0  0  0  0  0
  -20.7337  -38.8841   -7.6673 C   0  0  0  0  0  0  0  0  0  0  0  0
  -21.5528  -40.0763   -7.2231 C   0  0  0  0  0  0  0  0  0  0  0  0
  -22.9535  -39.6842   -6.8084 C   0  0  0  0  0  0  0  0  0  0  0  0
  -23.4034  -40.6689   -5.7276 C   0  0  0  0  0  0  0  0  0  0  0  0
  -24.3603  -41.6937   -6.2391 C   0  0  0  0  0  0  0  0  0  0  0  0
  -23.7574  -43.0774   -6.3805 C   0  0  0  0  0  0  0  0  0  0  0  0
  -22.6766  -43.1324   -7.2209 O   0  0  0  0  0  0  0  0  0  0  0  0
  -21.8137  -44.1834   -6.9212 C   0  0  0  0  0  0  0  0  0  0  0  0
  -20.6517  -44.1890   -7.8301 C   0  0  0  0  0  0  0  0  0  0  0  0
  -20.8758  -44.3590   -9.0566 O   0  0  0  0  0  0  0  0  0  0  0  0
  -19.3153  -44.0168   -7.4105 N   0  0  0  0  0  0  0  0  0  0  0  0
  -18.2108  -44.5152   -8.2053 C   0  0  0  0  0  0  0  0  0  0  0  0
  -19.0437  -43.3327   -6.1678 C   0  0  1  0  0  0  0  0  0  0  0  0
  -18.8722  -44.4503   -5.1251 C   0  0  0  0  0  0  0  0  0  0  0  0
  -17.8419  -42.4637   -6.2048 C   0  0  0  0  0  0  0  0  0  0  0  0
  -17.3558  -42.1977   -5.0412 O   0  0  0  0  0  0  0  0  0  0  0  0
  -17.1972  -41.9184   -7.3221 N   0  0  0  0  0  0  0  0  0  0  0  0
  -13.4233  -38.3689  -12.4129 N   0  0  0  0  0  0  0  0  0  0  0  0
  -13.2775  -37.0886  -12.6604 N   0  0  0  0  0  0  0  0  0  0  0  0
  1  2  1  0
  2  3  1  0
  3  4  1  0
  4  5  2  0
  5  6  1  0
  6  7  1  0
  7  8  1  0
  8  9  1  0
  9 10  1  0
 10 11  1  6
 10 12  1  0
 12 13  1  1
 13 14  1  0
 14 15  1  1
 14 16  1  0
 16 17  1  0
 17 18  1  0
 18 19  1  0
 19 20  1  0
 20 21  1  0
 21 22  1  0
 22 23  1  0
 23 24  1  0
 24 25  2  0
 24 26  1  0
 26 27  1  0
 26 28  1  0
 28 29  1  1
 28 30  1  0
 30 31  2  0
 30 32  1  0
  6 33  2  0
 33 34  1  0
 32 12  1  0
 34  4  1  0
M  END
$$$$
