
     RDKit          3D

 34 35  0  0  0  0  0  0  0  0999 V2000
  -11.0908  -34.0926  -13.5162 C   0  0  0  0  0  0  0  0  0  0  0  0
  -11.4602  -35.3858  -12.8691 C   0  0  0  0  0  0  0  0  0  0  0  0
  -12.9069  -35.4788  -12.4784 C   0  0  0  0  0  0  0  0  0  0  0  0
  -13.1554  -36.8542  -11.9483 C   0  0  0  0  0  0  0  0  0  0  0  0
  -12.8157  -37.3283  -10.6994 C   0  0  0  0  0  0  0  0  0  0  0  0
  -13.2257  -38.6284  -10.6396 C   0  0  0  0  0  0  0  0  0  0  0  0
  -13.0963  -39.5999   -9.5019 C   0  0  0  0  0  0  0  0  0  0  0  0
  -14.2324  -39.4435   -8.6142 N   0  0  0  0  0  0  0  0  0  0  0  0
  -15.2521  -40.4028   -8.9056 C   0  0  0  0  0  0  0  0  0  0  0  0
  -16.6233  -39.8775   -8.7322 C   0  0  1  0  0  0  0  0  0  0  0  0
  -16.9733  -39.0470   -9.7971 O   0  0  0  0  0  0  0  0  0  0  0  0
  -17.6885  -40.8440   -8.3565 C   0  0  2  0  0  0  0  0  0  0  0  0
  -19.0386  -40.3447   -8.0649 C   0  0  0  0  0  0  0  0  0  0  0  0
  -19.2425  -39.1250   -7.2739 C   0  0  2  0  0  0  0  0  0  0  0  0
  -18.9768  -39.2202   -5.7935 C   0  0  0  0  0  0  0  0  0  0  0  0
  -20.7619  -38.8354   -7.3672 C   0  0  0  0  0  0  0  0  0  0  0  0
  -21.5383  -40.0989   -7.0670 C   0  0  0  0  0  0  0  0  0  0  0  0
  -22.9487  -39.8066   -6.6054 C   0  0  0  0  0  0  0  0  0  0  0  0
  -23.3591  -40.9279   -5.6492 C   0  0  0  0  0  0  0  0  0  0  0  0
  -24.2845  -41.9159   -6.2776 C   0  0  0  0  0  0  0  0  0  0  0  0
  -23.6369  -43.2517   -6.5846 C   0  0  0  0  0  0  0  0  0  0  0  0
  -22.5600  -43.1695   -7.4278 O   0  0  0  0  0  0  0  0  0  0  0  0
  -21.6610  -44.2192   -7.2577 C   0  0  0  0  0  0  0  0  0  0  0  0
  -20.5050  -44.0771   -8.1631 C   0  0  0  0  0  0  0  0  0  0  0  0
  -20.7307  -44.1068   -9.4007 O   0  0  0  0  0  0  0  0  0  0  0  0
  -19.1725  -43.9113   -7.7288 N   0  0  0  0  0  0  0  0  0  0  0  0
  -18.0570  -44.2738   -8.5798 C   0  0  0  0  0  0  0  0  0  0  0  0
  -18.9161  -43.3718   -6.4137 C   0  0  1  0  0  0  0  0  0  0  0  0
  -18.7013  -44.5994   -5.5125 C   0  0  0  0  0  0  0  0  0  0  0  0
  -17.7441  -42.4646   -6.3491 C   0  0  0  0  0  0  0  0  0  0  0  0
  -17.2600  -42.3232   -5.1630 O   0  0  0  0  0  0  0  0  0  0  0  0
  -17.1246  -41.7683   -7.3945 N   0  0  0  0  0  0  0  0  0  0  0  0
  -13.7940  -38.9084  -11.8298 N   0  0  0  0  0  0  0  0  0  0  0  0
  -13.7573  -37.8588  -12.6164 N   0  0  0  0  0  0  0  0  0  0  0  0
  1  2  1  0
  2  3  1  0
  3  4  1  0
  4  5  2  0
  5  6  1  0
  6  7  1  0
  7  8  1  0
  8  9  1  0
  9 10  1  0
 10 11  1  6
 10 12  1  0
 12 13  1  1
 13 14  1  0
 14 15  1  1
 14 16  1  0
 16 17  1  0
 17 18  1  0
 18 19  1  0
 19 20  1  0
 20 21  1  0
 21 22  1  0
 22 23  1  0
 23 24  1  0
 24 25  2  0
 24 26  1  0
 26 27  1  0
 26 28  1  0
 28 29  1  1
 28 30  1  0
 30 31  2  0
 30 32  1  0
  6 33  2  0
 33 34  1  0
 32 12  1  0
 34  4  1  0
M  END
$$$$
