
     RDKit          3D

 34 35  0  0  0  0  0  0  0  0999 V2000
  -13.3031  -34.3004  -13.7425 C   0  0  0  0  0  0  0  0  0  0  0  0
  -13.4855  -35.5511  -12.9486 C   0  0  0  0  0  0  0  0  0  0  0  0
  -12.6064  -36.6853  -13.3903 C   0  0  0  0  0  0  0  0  0  0  0  0
  -13.0359  -37.9157  -12.6579 C   0  0  0  0  0  0  0  0  0  0  0  0
  -12.8732  -38.1715  -11.3133 C   0  0  0  0  0  0  0  0  0  0  0  0
  -13.4069  -39.4041  -11.0729 C   0  0  0  0  0  0  0  0  0  0  0  0
  -13.4874  -40.1527   -9.7736 C   0  0  0  0  0  0  0  0  0  0  0  0
  -14.5548  -39.5904   -8.9687 N   0  0  0  0  0  0  0  0  0  0  0  0
  -15.8370  -39.9997   -9.4517 C   0  0  0  0  0  0  0  0  0  0  0  0
  -16.9548  -39.5985   -8.5709 C   0  0  1  0  0  0  0  0  0  0  0  0
  -17.4398  -38.3404   -8.9290 O   0  0  0  0  0  0  0  0  0  0  0  0
  -18.0251  -40.5987   -8.3177 C   0  0  2  0  0  0  0  0  0  0  0  0
  -19.3731  -40.1325   -7.9674 C   0  0  0  0  0  0  0  0  0  0  0  0
  -19.5718  -39.0187   -7.0320 C   0  0  2  0  0  0  0  0  0  0  0  0
  -19.3082  -39.2970   -5.5746 C   0  0  0  0  0  0  0  0  0  0  0  0
  -21.0897  -38.7122   -7.0895 C   0  0  0  0  0  0  0  0  0  0  0  0
  -21.8725  -39.9993   -6.9478 C   0  0  0  0  0  0  0  0  0  0  0  0
  -23.2819  -39.7592   -6.4544 C   0  0  0  0  0  0  0  0  0  0  0  0
  -23.6988  -40.9878   -5.6439 C   0  0  0  0  0  0  0  0  0  0  0  0
  -24.6283  -41.8862   -6.3897 C   0  0  0  0  0  0  0  0  0  0  0  0
  -23.9869  -43.1772   -6.8588 C   0  0  0  0  0  0  0  0  0  0  0  0
  -22.9087  -42.9969   -7.6850 O   0  0  0  0  0  0  0  0  0  0  0  0
  -22.0150  -44.0639   -7.6452 C   0  0  0  0  0  0  0  0  0  0  0  0
  -20.8574  -43.8170   -8.5257 C   0  0  0  0  0  0  0  0  0  0  0  0
  -21.0820  -43.6928   -9.7576 O   0  0  0  0  0  0  0  0  0  0  0  0
  -19.5246  -43.7126   -8.0737 N   0  0  0  0  0  0  0  0  0  0  0  0
  -18.4099  -43.9729   -8.9624 C   0  0  0  0  0  0  0  0  0  0  0  0
  -19.2670  -43.3407   -6.7020 C   0  0  1  0  0  0  0  0  0  0  0  0
  -19.0590  -44.6711   -5.9590 C   0  0  0  0  0  0  0  0  0  0  0  0
  -18.0905  -42.4542   -6.5256 C   0  0  0  0  0  0  0  0  0  0  0  0
  -17.6070  -42.4625   -5.3309 O   0  0  0  0  0  0  0  0  0  0  0  0
  -17.4667  -41.6374   -7.4768 N   0  0  0  0  0  0  0  0  0  0  0  0
  -13.8722  -39.8595  -12.2536 N   0  0  0  0  0  0  0  0  0  0  0  0
  -13.6564  -38.9809  -13.2039 N   0  0  0  0  0  0  0  0  0  0  0  0
  1  2  1  0
  2  3  1  0
  3  4  1  0
  4  5  2  0
  5  6  1  0
  6  7  1  0
  7  8  1  0
  8  9  1  0
  9 10  1  0
 10 11  1  6
 10 12  1  0
 12 13  1  1
 13 14  1  0
 14 15  1  1
 14 16  1  0
 16 17  1  0
 17 18  1  0
 18 19  1  0
 19 20  1  0
 20 21  1  0
 21 22  1  0
 22 23  1  0
 23 24  1  0
 24 25  2  0
 24 26  1  0
 26 27  1  0
 26 28  1  0
 28 29  1  1
 28 30  1  0
 30 31  2  0
 30 32  1  0
  6 33  2  0
 33 34  1  0
 32 12  1  0
 34  4  1  0
M  END
$$$$
