
     RDKit          3D

 34 35  0  0  0  0  0  0  0  0999 V2000
  -24.4862  -39.5847  -10.0897 C   0  0  0  0  0  0  0  0  0  0  0  0
  -23.5637  -40.0316   -9.0048 C   0  0  0  0  0  0  0  0  0  0  0  0
  -22.8235  -38.9097   -8.3355 C   0  0  0  0  0  0  0  0  0  0  0  0
  -21.8932  -39.5053   -7.3284 C   0  0  0  0  0  0  0  0  0  0  0  0
  -20.5237  -39.3555   -7.2839 C   0  0  0  0  0  0  0  0  0  0  0  0
  -20.0780  -40.0658   -6.2074 C   0  0  0  0  0  0  0  0  0  0  0  0
  -18.6699  -40.2324   -5.7131 C   0  0  0  0  0  0  0  0  0  0  0  0
  -17.8582  -39.1428   -6.2201 N   0  0  0  0  0  0  0  0  0  0  0  0
  -16.7766  -39.6316   -7.0176 C   0  0  0  0  0  0  0  0  0  0  0  0
  -16.3826  -38.7109   -8.1055 C   0  0  1  0  0  0  0  0  0  0  0  0
  -15.8711  -37.5215   -7.5860 O   0  0  0  0  0  0  0  0  0  0  0  0
  -15.5740  -39.2692   -9.2210 C   0  0  2  0  0  0  0  0  0  0  0  0
  -14.6956  -38.3751   -9.9866 C   0  0  0  0  0  0  0  0  0  0  0  0
  -15.1385  -37.0331  -10.3837 C   0  0  2  0  0  0  0  0  0  0  0  0
  -16.1578  -36.9513  -11.4907 C   0  0  0  0  0  0  0  0  0  0  0  0
  -13.8791  -36.3544  -10.9788 C   0  0  0  0  0  0  0  0  0  0  0  0
  -13.2238  -37.2862  -11.9747 C   0  0  0  0  0  0  0  0  0  0  0  0
  -12.3595  -36.5432  -12.9690 C   0  0  0  0  0  0  0  0  0  0  0  0
  -12.3867  -37.3328  -14.2790 C   0  0  0  0  0  0  0  0  0  0  0  0
  -11.1376  -38.1165  -14.5095 C   0  0  0  0  0  0  0  0  0  0  0  0
  -11.3093  -39.6109  -14.3215 C   0  0  0  0  0  0  0  0  0  0  0  0
  -11.7431  -39.9705  -13.0725 O   0  0  0  0  0  0  0  0  0  0  0  0
  -12.4252  -41.1844  -13.0677 C   0  0  0  0  0  0  0  0  0  0  0  0
  -12.8985  -41.5194  -11.7112 C   0  0  0  0  0  0  0  0  0  0  0  0
  -12.0277  -41.6902  -10.8190 O   0  0  0  0  0  0  0  0  0  0  0  0
  -14.2574  -41.6587  -11.3567 N   0  0  0  0  0  0  0  0  0  0  0  0
  -14.6547  -42.4513  -10.2103 C   0  0  0  0  0  0  0  0  0  0  0  0
  -15.2693  -41.0009  -12.1501 C   0  0  1  0  0  0  0  0  0  0  0  0
  -15.7652  -42.0731  -13.1349 C   0  0  0  0  0  0  0  0  0  0  0  0
  -16.3995  -40.4554  -11.3589 C   0  0  0  0  0  0  0  0  0  0  0  0
  -17.4705  -40.2587  -12.0484 O   0  0  0  0  0  0  0  0  0  0  0  0
  -16.4341  -40.1407   -9.9947 N   0  0  0  0  0  0  0  0  0  0  0  0
  -21.1655  -40.6197   -5.6342 N   0  0  0  0  0  0  0  0  0  0  0  0
  -22.2515  -40.2922   -6.2939 N   0  0  0  0  0  0  0  0  0  0  0  0
  1  2  1  0
  2  3  1  0
  3  4  1  0
  4  5  2  0
  5  6  1  0
  6  7  1  0
  7  8  1  0
  8  9  1  0
  9 10  1  0
 10 11  1  1
 10 12  1  0
 12 13  1  6
 13 14  1  0
 14 15  1  6
 14 16  1  0
 16 17  1  0
 17 18  1  0
 18 19  1  0
 19 20  1  0
 20 21  1  0
 21 22  1  0
 22 23  1  0
 23 24  1  0
 24 25  2  0
 24 26  1  0
 26 27  1  0
 26 28  1  0
 28 29  1  6
 28 30  1  0
 30 31  2  0
 30 32  1  0
  6 33  2  0
 33 34  1  0
 32 12  1  0
 34  4  1  0
M  END
$$$$
