
     RDKit          3D

 34 35  0  0  0  0  0  0  0  0999 V2000
   -9.5452  -38.2284  -14.5026 C   0  0  0  0  0  0  0  0  0  0  0  0
  -10.8146  -37.6588  -13.9620 C   0  0  0  0  0  0  0  0  0  0  0  0
  -10.6427  -36.9022  -12.6766 C   0  0  0  0  0  0  0  0  0  0  0  0
  -11.9765  -36.8192  -12.0068 C   0  0  0  0  0  0  0  0  0  0  0  0
  -12.9667  -37.7779  -12.0240 C   0  0  0  0  0  0  0  0  0  0  0  0
  -14.0082  -37.2909  -11.2891 C   0  0  0  0  0  0  0  0  0  0  0  0
  -15.3301  -37.9392  -10.9939 C   0  0  0  0  0  0  0  0  0  0  0  0
  -15.1457  -39.3755  -10.9142 N   0  0  0  0  0  0  0  0  0  0  0  0
  -15.6505  -39.8939   -9.6808 C   0  0  0  0  0  0  0  0  0  0  0  0
  -17.0035  -39.4018   -9.3437 C   0  0  1  0  0  0  0  0  0  0  0  0
  -17.5389  -38.6640  -10.3997 O   0  0  0  0  0  0  0  0  0  0  0  0
  -17.9609  -40.3718   -8.7501 C   0  0  2  0  0  0  0  0  0  0  0  0
  -19.3087  -39.9164   -8.3853 C   0  0  0  0  0  0  0  0  0  0  0  0
  -19.5202  -38.6207   -7.7283 C   0  0  2  0  0  0  0  0  0  0  0  0
  -19.1117  -38.5151   -6.2816 C   0  0  0  0  0  0  0  0  0  0  0  0
  -21.0578  -38.4305   -7.7016 C   0  0  0  0  0  0  0  0  0  0  0  0
  -21.7152  -39.6881   -7.1764 C   0  0  0  0  0  0  0  0  0  0  0  0
  -23.0929  -39.4197   -6.6130 C   0  0  0  0  0  0  0  0  0  0  0  0
  -23.3352  -40.4339   -5.4937 C   0  0  0  0  0  0  0  0  0  0  0  0
  -24.2461  -41.5429   -5.9034 C   0  0  0  0  0  0  0  0  0  0  0  0
  -23.5407  -42.8683   -6.1132 C   0  0  0  0  0  0  0  0  0  0  0  0
  -22.5553  -42.8320   -7.0645 O   0  0  0  0  0  0  0  0  0  0  0  0
  -21.5751  -43.8002   -6.8624 C   0  0  0  0  0  0  0  0  0  0  0  0
  -20.5210  -43.7079   -7.8903 C   0  0  0  0  0  0  0  0  0  0  0  0
  -20.8587  -43.9047   -9.0864 O   0  0  0  0  0  0  0  0  0  0  0  0
  -19.1682  -43.4148   -7.6155 N   0  0  0  0  0  0  0  0  0  0  0  0
  -18.1149  -43.8179   -8.5256 C   0  0  0  0  0  0  0  0  0  0  0  0
  -18.8274  -42.7017   -6.4066 C   0  0  1  0  0  0  0  0  0  0  0  0
  -18.4466  -43.7931   -5.3921 C   0  0  0  0  0  0  0  0  0  0  0  0
  -17.7187  -41.7294   -6.5690 C   0  0  0  0  0  0  0  0  0  0  0  0
  -17.1368  -41.4140   -5.4631 O   0  0  0  0  0  0  0  0  0  0  0  0
  -17.2483  -41.1357   -7.7469 N   0  0  0  0  0  0  0  0  0  0  0  0
  -13.6340  -36.0718  -10.8512 N   0  0  0  0  0  0  0  0  0  0  0  0
  -12.4260  -35.7813  -11.2729 N   0  0  0  0  0  0  0  0  0  0  0  0
  1  2  1  0
  2  3  1  0
  3  4  1  0
  4  5  2  0
  5  6  1  0
  6  7  1  0
  7  8  1  0
  8  9  1  0
  9 10  1  0
 10 11  1  6
 10 12  1  0
 12 13  1  1
 13 14  1  0
 14 15  1  1
 14 16  1  0
 16 17  1  0
 17 18  1  0
 18 19  1  0
 19 20  1  0
 20 21  1  0
 21 22  1  0
 22 23  1  0
 23 24  1  0
 24 25  2  0
 24 26  1  0
 26 27  1  0
 26 28  1  0
 28 29  1  1
 28 30  1  0
 30 31  2  0
 30 32  1  0
  6 33  2  0
 33 34  1  0
 32 12  1  0
 34  4  1  0
M  END
$$$$
