
     RDKit          3D

 34 35  0  0  0  0  0  0  0  0999 V2000
  -23.5784  -41.0183   -5.0602 C   0  0  0  0  0  0  0  0  0  0  0  0
  -22.6860  -39.9890   -5.6702 C   0  0  0  0  0  0  0  0  0  0  0  0
  -23.0500  -39.6280   -7.0815 C   0  0  0  0  0  0  0  0  0  0  0  0
  -22.0728  -38.6048   -7.5639 C   0  0  0  0  0  0  0  0  0  0  0  0
  -20.6982  -38.6917   -7.5128 C   0  0  0  0  0  0  0  0  0  0  0  0
  -20.2038  -37.5426   -8.0579 C   0  0  0  0  0  0  0  0  0  0  0  0
  -18.7705  -37.1347   -8.2427 C   0  0  0  0  0  0  0  0  0  0  0  0
  -18.1193  -37.0934   -6.9475 N   0  0  0  0  0  0  0  0  0  0  0  0
  -17.4682  -38.3328   -6.6565 C   0  0  0  0  0  0  0  0  0  0  0  0
  -16.5420  -38.7767   -7.7201 C   0  0  1  0  0  0  0  0  0  0  0  0
  -15.2508  -38.3060   -7.4800 O   0  0  0  0  0  0  0  0  0  0  0  0
  -16.5885  -40.2075   -8.1208 C   0  0  2  0  0  0  0  0  0  0  0  0
  -15.4542  -40.7834   -8.8548 C   0  0  0  0  0  0  0  0  0  0  0  0
  -14.7906  -40.0390   -9.9320 C   0  0  2  0  0  0  0  0  0  0  0  0
  -15.5416  -39.9058  -11.2318 C   0  0  0  0  0  0  0  0  0  0  0  0
  -13.5472  -40.8875  -10.2995 C   0  0  0  0  0  0  0  0  0  0  0  0
  -13.9566  -42.3321  -10.4867 C   0  0  0  0  0  0  0  0  0  0  0  0
  -12.9759  -43.0967  -11.3477 C   0  0  0  0  0  0  0  0  0  0  0  0
  -13.7642  -44.1771  -12.0902 C   0  0  0  0  0  0  0  0  0  0  0  0
  -13.5729  -45.5378  -11.5077 C   0  0  0  0  0  0  0  0  0  0  0  0
  -14.7777  -46.0519  -10.7447 C   0  0  0  0  0  0  0  0  0  0  0  0
  -15.1573  -45.2541   -9.6973 O   0  0  0  0  0  0  0  0  0  0  0  0
  -16.5081  -45.3821   -9.3843 C   0  0  0  0  0  0  0  0  0  0  0  0
  -16.8801  -44.4871   -8.2722 C   0  0  0  0  0  0  0  0  0  0  0  0
  -16.3214  -44.6796   -7.1612 O   0  0  0  0  0  0  0  0  0  0  0  0
  -17.8169  -43.4370   -8.3781 N   0  0  0  0  0  0  0  0  0  0  0  0
  -18.5112  -42.9322   -7.2105 C   0  0  0  0  0  0  0  0  0  0  0  0
  -18.0889  -42.8558   -9.6721 C   0  0  1  0  0  0  0  0  0  0  0  0
  -19.3482  -43.5789  -10.1788 C   0  0  0  0  0  0  0  0  0  0  0  0
  -18.3047  -41.3883   -9.6437 C   0  0  0  0  0  0  0  0  0  0  0  0
  -18.9462  -40.9366  -10.6663 O   0  0  0  0  0  0  0  0  0  0  0  0
  -17.9048  -40.4693   -8.6657 N   0  0  0  0  0  0  0  0  0  0  0  0
  -21.2685  -36.7990   -8.4204 N   0  0  0  0  0  0  0  0  0  0  0  0
  -22.3862  -37.4222   -8.1306 N   0  0  0  0  0  0  0  0  0  0  0  0
  1  2  1  0
  2  3  1  0
  3  4  1  0
  4  5  2  0
  5  6  1  0
  6  7  1  0
  7  8  1  0
  8  9  1  0
  9 10  1  0
 10 11  1  1
 10 12  1  0
 12 13  1  6
 13 14  1  0
 14 15  1  6
 14 16  1  0
 16 17  1  0
 17 18  1  0
 18 19  1  0
 19 20  1  0
 20 21  1  0
 21 22  1  0
 22 23  1  0
 23 24  1  0
 24 25  2  0
 24 26  1  0
 26 27  1  0
 26 28  1  0
 28 29  1  1
 28 30  1  0
 30 31  2  0
 30 32  1  0
  6 33  2  0
 33 34  1  0
 32 12  1  0
 34  4  1  0
M  END
$$$$
