
     RDKit          3D

 34 35  0  0  0  0  0  0  0  0999 V2000
  -23.9541  -39.6998   -3.9578 C   0  0  0  0  0  0  0  0  0  0  0  0
  -23.2155  -39.6803   -5.2546 C   0  0  0  0  0  0  0  0  0  0  0  0
  -21.7275  -39.5475   -5.1049 C   0  0  0  0  0  0  0  0  0  0  0  0
  -21.1103  -39.7093   -6.4568 C   0  0  0  0  0  0  0  0  0  0  0  0
  -19.8098  -40.0762   -6.7288 C   0  0  0  0  0  0  0  0  0  0  0  0
  -19.6762  -40.0998   -8.0866 C   0  0  0  0  0  0  0  0  0  0  0  0
  -18.4613  -40.4366   -8.9024 C   0  0  0  0  0  0  0  0  0  0  0  0
  -17.4210  -40.9304   -8.0208 N   0  0  0  0  0  0  0  0  0  0  0  0
  -16.7268  -39.8532   -7.3862 C   0  0  0  0  0  0  0  0  0  0  0  0
  -16.1686  -38.8689   -8.3379 C   0  0  1  0  0  0  0  0  0  0  0  0
  -15.6517  -37.7641   -7.6608 O   0  0  0  0  0  0  0  0  0  0  0  0
  -15.2764  -39.3791   -9.4120 C   0  0  2  0  0  0  0  0  0  0  0  0
  -14.1761  -38.5328   -9.8918 C   0  0  0  0  0  0  0  0  0  0  0  0
  -14.3665  -37.0943  -10.1146 C   0  0  2  0  0  0  0  0  0  0  0  0
  -15.1778  -36.6925  -11.3193 C   0  0  0  0  0  0  0  0  0  0  0  0
  -12.9493  -36.5432  -10.4126 C   0  0  0  0  0  0  0  0  0  0  0  0
  -12.2761  -37.4115  -11.4530 C   0  0  0  0  0  0  0  0  0  0  0  0
  -11.1739  -36.6772  -12.1834 C   0  0  0  0  0  0  0  0  0  0  0  0
  -11.0997  -37.2532  -13.5986 C   0  0  0  0  0  0  0  0  0  0  0  0
   -9.9466  -38.1819  -13.7868 C   0  0  0  0  0  0  0  0  0  0  0  0
  -10.3449  -39.6418  -13.8766 C   0  0  0  0  0  0  0  0  0  0  0  0
  -11.0148  -40.1066  -12.7753 O   0  0  0  0  0  0  0  0  0  0  0  0
  -11.8460  -41.1854  -13.0656 C   0  0  0  0  0  0  0  0  0  0  0  0
  -12.5680  -41.6357  -11.8606 C   0  0  0  0  0  0  0  0  0  0  0  0
  -11.8800  -42.0698  -10.9006 O   0  0  0  0  0  0  0  0  0  0  0  0
  -13.9721  -41.6093  -11.7206 N   0  0  0  0  0  0  0  0  0  0  0  0
  -14.6483  -42.4877  -10.7873 C   0  0  0  0  0  0  0  0  0  0  0  0
  -14.7485  -40.6917  -12.5216 C   0  0  1  0  0  0  0  0  0  0  0  0
  -15.2221  -41.5173  -13.7298 C   0  0  0  0  0  0  0  0  0  0  0  0
  -15.9057  -40.0960  -11.8097 C   0  0  0  0  0  0  0  0  0  0  0  0
  -16.8183  -39.6347  -12.5944 O   0  0  0  0  0  0  0  0  0  0  0  0
  -16.1127  -39.9820  -10.4294 N   0  0  0  0  0  0  0  0  0  0  0  0
  -20.8748  -39.7538   -8.5978 N   0  0  0  0  0  0  0  0  0  0  0  0
  -21.7359  -39.5192   -7.6360 N   0  0  0  0  0  0  0  0  0  0  0  0
  1  2  1  0
  2  3  1  0
  3  4  1  0
  4  5  2  0
  5  6  1  0
  6  7  1  0
  7  8  1  0
  8  9  1  0
  9 10  1  0
 10 11  1  1
 10 12  1  0
 12 13  1  6
 13 14  1  0
 14 15  1  6
 14 16  1  0
 16 17  1  0
 17 18  1  0
 18 19  1  0
 19 20  1  0
 20 21  1  0
 21 22  1  0
 22 23  1  0
 23 24  1  0
 24 25  2  0
 24 26  1  0
 26 27  1  0
 26 28  1  0
 28 29  1  6
 28 30  1  0
 30 31  2  0
 30 32  1  0
  6 33  2  0
 33 34  1  0
 32 12  1  0
 34  4  1  0
M  END
$$$$
