
     RDKit          3D

 34 35  0  0  0  0  0  0  0  0999 V2000
  -25.0262  -39.0327   -8.5212 C   0  0  0  0  0  0  0  0  0  0  0  0
  -23.5620  -38.8196   -8.3252 C   0  0  0  0  0  0  0  0  0  0  0  0
  -23.0322  -39.3842   -7.0388 C   0  0  0  0  0  0  0  0  0  0  0  0
  -21.5779  -39.0497   -6.9510 C   0  0  0  0  0  0  0  0  0  0  0  0
  -20.6409  -39.6589   -6.1444 C   0  0  0  0  0  0  0  0  0  0  0  0
  -19.4468  -39.0427   -6.3819 C   0  0  0  0  0  0  0  0  0  0  0  0
  -18.1078  -39.3250   -5.7637 C   0  0  0  0  0  0  0  0  0  0  0  0
  -17.5256  -40.4877   -6.4059 N   0  0  0  0  0  0  0  0  0  0  0  0
  -16.1431  -40.2760   -6.7034 C   0  0  0  0  0  0  0  0  0  0  0  0
  -15.9129  -39.2388   -7.7317 C   0  0  1  0  0  0  0  0  0  0  0  0
  -15.3289  -38.1041   -7.1679 O   0  0  0  0  0  0  0  0  0  0  0  0
  -15.2785  -39.6627   -9.0075 C   0  0  2  0  0  0  0  0  0  0  0  0
  -14.8247  -38.6384   -9.9572 C   0  0  0  0  0  0  0  0  0  0  0  0
  -15.6379  -37.4485  -10.2362 C   0  0  2  0  0  0  0  0  0  0  0  0
  -16.8761  -37.6494  -11.0714 C   0  0  0  0  0  0  0  0  0  0  0  0
  -14.7355  -36.5416  -11.1106 C   0  0  0  0  0  0  0  0  0  0  0  0
  -14.1345  -37.3571  -12.2345 C   0  0  0  0  0  0  0  0  0  0  0  0
  -13.7127  -36.4948  -13.4034 C   0  0  0  0  0  0  0  0  0  0  0  0
  -13.8621  -37.3376  -14.6713 C   0  0  0  0  0  0  0  0  0  0  0  0
  -12.5561  -37.8389  -15.1914 C   0  0  0  0  0  0  0  0  0  0  0  0
  -12.3386  -39.3229  -14.9709 C   0  0  0  0  0  0  0  0  0  0  0  0
  -12.3807  -39.7040  -13.6554 O   0  0  0  0  0  0  0  0  0  0  0  0
  -12.7518  -41.0361  -13.4919 C   0  0  0  0  0  0  0  0  0  0  0  0
  -12.8120  -41.3964  -12.0626 C   0  0  0  0  0  0  0  0  0  0  0  0
  -11.7437  -41.3259  -11.4014 O   0  0  0  0  0  0  0  0  0  0  0  0
  -13.9854  -41.8120  -11.3977 N   0  0  0  0  0  0  0  0  0  0  0  0
  -13.9190  -42.6123  -10.1914 C   0  0  0  0  0  0  0  0  0  0  0  0
  -15.2743  -41.4340  -11.9288 C   0  0  1  0  0  0  0  0  0  0  0  0
  -15.7289  -42.6381  -12.7707 C   0  0  0  0  0  0  0  0  0  0  0  0
  -16.2849  -41.1096  -10.8923 C   0  0  0  0  0  0  0  0  0  0  0  0
  -17.5019  -41.1885  -11.3093 O   0  0  0  0  0  0  0  0  0  0  0  0
  -16.0745  -40.7403   -9.5579 N   0  0  0  0  0  0  0  0  0  0  0  0
  -19.6815  -38.0922   -7.3090 N   0  0  0  0  0  0  0  0  0  0  0  0
  -20.9472  -38.0879   -7.6547 N   0  0  0  0  0  0  0  0  0  0  0  0
  1  2  1  0
  2  3  1  0
  3  4  1  0
  4  5  2  0
  5  6  1  0
  6  7  1  0
  7  8  1  0
  8  9  1  0
  9 10  1  0
 10 11  1  1
 10 12  1  0
 12 13  1  6
 13 14  1  0
 14 15  1  6
 14 16  1  0
 16 17  1  0
 17 18  1  0
 18 19  1  0
 19 20  1  0
 20 21  1  0
 21 22  1  0
 22 23  1  0
 23 24  1  0
 24 25  2  0
 24 26  1  0
 26 27  1  0
 26 28  1  0
 28 29  1  1
 28 30  1  0
 30 31  2  0
 30 32  1  0
  6 33  2  0
 33 34  1  0
 32 12  1  0
 34  4  1  0
M  END
$$$$
