
     RDKit          3D

 34 35  0  0  0  0  0  0  0  0999 V2000
  -19.0153  -36.3164  -14.6922 C   0  0  0  0  0  0  0  0  0  0  0  0
  -18.6710  -36.2778  -13.2404 C   0  0  0  0  0  0  0  0  0  0  0  0
  -17.2641  -35.8343  -12.9607 C   0  0  0  0  0  0  0  0  0  0  0  0
  -16.6675  -36.7842  -11.9726 C   0  0  0  0  0  0  0  0  0  0  0  0
  -16.0549  -36.4559  -10.7823 C   0  0  0  0  0  0  0  0  0  0  0  0
  -15.6587  -37.6247  -10.2002 C   0  0  0  0  0  0  0  0  0  0  0  0
  -14.9457  -37.8259   -8.8940 C   0  0  0  0  0  0  0  0  0  0  0  0
  -14.6724  -39.2390   -8.7166 N   0  0  0  0  0  0  0  0  0  0  0  0
  -15.7004  -39.8721   -7.9502 C   0  0  0  0  0  0  0  0  0  0  0  0
  -16.9976  -39.9520   -8.6553 C   0  0  1  0  0  0  0  0  0  0  0  0
  -16.8132  -39.9059  -10.0374 O   0  0  0  0  0  0  0  0  0  0  0  0
  -17.9557  -41.0011   -8.2177 C   0  0  2  0  0  0  0  0  0  0  0  0
  -19.3944  -40.7058   -8.2256 C   0  0  0  0  0  0  0  0  0  0  0  0
  -19.9061  -39.4110   -7.7602 C   0  0  2  0  0  0  0  0  0  0  0  0
  -19.8808  -39.1622   -6.2740 C   0  0  0  0  0  0  0  0  0  0  0  0
  -21.4143  -39.4242   -8.1154 C   0  0  0  0  0  0  0  0  0  0  0  0
  -22.0342  -40.7223   -7.6464 C   0  0  0  0  0  0  0  0  0  0  0  0
  -23.5295  -40.6037   -7.4520 C   0  0  0  0  0  0  0  0  0  0  0  0
  -23.9236  -41.5691   -6.3327 C   0  0  0  0  0  0  0  0  0  0  0  0
  -24.5742  -42.8121   -6.8417 C   0  0  0  0  0  0  0  0  0  0  0  0
  -23.6939  -44.0432   -6.7551 C   0  0  0  0  0  0  0  0  0  0  0  0
  -22.5152  -43.9365   -7.4457 O   0  0  0  0  0  0  0  0  0  0  0  0
  -21.5120  -44.7522   -6.9288 C   0  0  0  0  0  0  0  0  0  0  0  0
  -20.2548  -44.5858   -7.6824 C   0  0  0  0  0  0  0  0  0  0  0  0
  -20.2632  -44.8998   -8.9010 O   0  0  0  0  0  0  0  0  0  0  0  0
  -19.0532  -44.1001   -7.1239 N   0  0  0  0  0  0  0  0  0  0  0  0
  -17.7698  -44.4165   -7.7178 C   0  0  0  0  0  0  0  0  0  0  0  0
  -19.1033  -43.2741   -5.9401 C   0  0  1  0  0  0  0  0  0  0  0  0
  -18.8630  -44.2402   -4.7677 C   0  0  0  0  0  0  0  0  0  0  0  0
  -18.1059  -42.1759   -5.9251 C   0  0  0  0  0  0  0  0  0  0  0  0
  -17.8536  -41.7180   -4.7470 O   0  0  0  0  0  0  0  0  0  0  0  0
  -17.4303  -41.6000   -7.0081 N   0  0  0  0  0  0  0  0  0  0  0  0
  -16.0323  -38.6164  -11.0338 N   0  0  0  0  0  0  0  0  0  0  0  0
  -16.6338  -38.1268  -12.0922 N   0  0  0  0  0  0  0  0  0  0  0  0
  1  2  1  0
  2  3  1  0
  3  4  1  0
  4  5  2  0
  5  6  1  0
  6  7  1  0
  7  8  1  0
  8  9  1  0
  9 10  1  0
 10 11  1  6
 10 12  1  0
 12 13  1  1
 13 14  1  0
 14 15  1  1
 14 16  1  0
 16 17  1  0
 17 18  1  0
 18 19  1  0
 19 20  1  0
 20 21  1  0
 21 22  1  0
 22 23  1  0
 23 24  1  0
 24 25  2  0
 24 26  1  0
 26 27  1  0
 26 28  1  0
 28 29  1  1
 28 30  1  0
 30 31  2  0
 30 32  1  0
  6 33  2  0
 33 34  1  0
 32 12  1  0
 34  4  1  0
M  END
$$$$
