
     RDKit          3D

 34 35  0  0  0  0  0  0  0  0999 V2000
  -25.3322  -36.2436   -9.1868 C   0  0  0  0  0  0  0  0  0  0  0  0
  -24.1604  -37.0622   -8.7573 C   0  0  0  0  0  0  0  0  0  0  0  0
  -23.1157  -36.2837   -8.0109 C   0  0  0  0  0  0  0  0  0  0  0  0
  -21.9642  -37.1974   -7.7394 C   0  0  0  0  0  0  0  0  0  0  0  0
  -20.6387  -36.8378   -7.6219 C   0  0  0  0  0  0  0  0  0  0  0  0
  -19.9343  -37.9803   -7.3759 C   0  0  0  0  0  0  0  0  0  0  0  0
  -18.4561  -38.1425   -7.1673 C   0  0  0  0  0  0  0  0  0  0  0  0
  -18.2214  -39.2943   -6.3178 N   0  0  0  0  0  0  0  0  0  0  0  0
  -16.8293  -39.4497   -6.0305 C   0  0  0  0  0  0  0  0  0  0  0  0
  -16.0191  -39.8091   -7.2139 C   0  0  1  0  0  0  0  0  0  0  0  0
  -14.6878  -39.4324   -7.0351 O   0  0  0  0  0  0  0  0  0  0  0  0
  -16.1803  -41.1789   -7.7686 C   0  0  2  0  0  0  0  0  0  0  0  0
  -15.1863  -41.6871   -8.7229 C   0  0  0  0  0  0  0  0  0  0  0  0
  -14.6529  -40.8325   -9.7907 C   0  0  2  0  0  0  0  0  0  0  0  0
  -15.5751  -40.5243  -10.9420 C   0  0  0  0  0  0  0  0  0  0  0  0
  -13.5099  -41.6586  -10.4328 C   0  0  0  0  0  0  0  0  0  0  0  0
  -14.0002  -43.0597  -10.7264 C   0  0  0  0  0  0  0  0  0  0  0  0
  -13.1838  -43.7361  -11.8051 C   0  0  0  0  0  0  0  0  0  0  0  0
  -14.1130  -44.6992  -12.5462 C   0  0  0  0  0  0  0  0  0  0  0  0
  -13.8962  -46.1249  -12.1616 C   0  0  0  0  0  0  0  0  0  0  0  0
  -15.0002  -46.7000  -11.2963 C   0  0  0  0  0  0  0  0  0  0  0  0
  -15.1942  -46.0274  -10.1185 O   0  0  0  0  0  0  0  0  0  0  0  0
  -16.4908  -46.1612   -9.6287 C   0  0  0  0  0  0  0  0  0  0  0  0
  -16.6642  -45.4001   -8.3769 C   0  0  0  0  0  0  0  0  0  0  0  0
  -15.9614  -45.7396   -7.3898 O   0  0  0  0  0  0  0  0  0  0  0  0
  -17.5631  -44.3234   -8.2209 N   0  0  0  0  0  0  0  0  0  0  0  0
  -18.0631  -43.9489   -6.9133 C   0  0  0  0  0  0  0  0  0  0  0  0
  -17.9925  -43.5826   -9.3840 C   0  0  1  0  0  0  0  0  0  0  0  0
  -19.3394  -44.2090   -9.7826 C   0  0  0  0  0  0  0  0  0  0  0  0
  -18.1422  -42.1249   -9.1524 C   0  0  0  0  0  0  0  0  0  0  0  0
  -18.9037  -41.5370  -10.0102 O   0  0  0  0  0  0  0  0  0  0  0  0
  -17.5702  -41.3416   -8.1423 N   0  0  0  0  0  0  0  0  0  0  0  0
  -20.8303  -38.9874   -7.3499 N   0  0  0  0  0  0  0  0  0  0  0  0
  -22.0419  -38.5321   -7.5652 N   0  0  0  0  0  0  0  0  0  0  0  0
  1  2  1  0
  2  3  1  0
  3  4  1  0
  4  5  2  0
  5  6  1  0
  6  7  1  0
  7  8  1  0
  8  9  1  0
  9 10  1  0
 10 11  1  1
 10 12  1  0
 12 13  1  6
 13 14  1  0
 14 15  1  6
 14 16  1  0
 16 17  1  0
 17 18  1  0
 18 19  1  0
 19 20  1  0
 20 21  1  0
 21 22  1  0
 22 23  1  0
 23 24  1  0
 24 25  2  0
 24 26  1  0
 26 27  1  0
 26 28  1  0
 28 29  1  1
 28 30  1  0
 30 31  2  0
 30 32  1  0
  6 33  2  0
 33 34  1  0
 32 12  1  0
 34  4  1  0
M  END
$$$$
