
     RDKit          3D

 34 35  0  0  0  0  0  0  0  0999 V2000
   -9.7603  -35.5523  -13.8094 C   0  0  0  0  0  0  0  0  0  0  0  0
  -10.9003  -36.3214  -13.2291 C   0  0  0  0  0  0  0  0  0  0  0  0
  -12.2077  -35.5837  -13.2558 C   0  0  0  0  0  0  0  0  0  0  0  0
  -13.2420  -36.4523  -12.6151 C   0  0  0  0  0  0  0  0  0  0  0  0
  -13.0133  -37.5720  -11.8446 C   0  0  0  0  0  0  0  0  0  0  0  0
  -14.2327  -38.0541  -11.4670 C   0  0  0  0  0  0  0  0  0  0  0  0
  -14.5441  -39.2551  -10.6212 C   0  0  0  0  0  0  0  0  0  0  0  0
  -15.0633  -38.8114   -9.3418 N   0  0  0  0  0  0  0  0  0  0  0  0
  -15.9845  -39.7615   -8.8001 C   0  0  0  0  0  0  0  0  0  0  0  0
  -17.4015  -39.3848   -8.9913 C   0  0  1  0  0  0  0  0  0  0  0  0
  -17.6317  -38.9759  -10.3051 O   0  0  0  0  0  0  0  0  0  0  0  0
  -18.4376  -40.3129   -8.4670 C   0  0  2  0  0  0  0  0  0  0  0  0
  -19.7730  -39.7905   -8.1495 C   0  0  0  0  0  0  0  0  0  0  0  0
  -19.9414  -38.5015   -7.4677 C   0  0  2  0  0  0  0  0  0  0  0  0
  -19.5938  -38.4549   -6.0020 C   0  0  0  0  0  0  0  0  0  0  0  0
  -21.4656  -38.2246   -7.5034 C   0  0  0  0  0  0  0  0  0  0  0  0
  -22.2154  -39.4552   -7.0420 C   0  0  0  0  0  0  0  0  0  0  0  0
  -23.6002  -39.1226   -6.5327 C   0  0  0  0  0  0  0  0  0  0  0  0
  -23.9494  -40.1486   -5.4530 C   0  0  0  0  0  0  0  0  0  0  0  0
  -24.9012  -41.1935   -5.9324 C   0  0  0  0  0  0  0  0  0  0  0  0
  -24.2622  -42.5514   -6.1467 C   0  0  0  0  0  0  0  0  0  0  0  0
  -23.2340  -42.5479   -7.0525 O   0  0  0  0  0  0  0  0  0  0  0  0
  -22.3196  -43.5750   -6.8337 C   0  0  0  0  0  0  0  0  0  0  0  0
  -21.2164  -43.5178   -7.8114 C   0  0  0  0  0  0  0  0  0  0  0  0
  -21.5098  -43.6655   -9.0261 O   0  0  0  0  0  0  0  0  0  0  0  0
  -19.8632  -43.3091   -7.4695 N   0  0  0  0  0  0  0  0  0  0  0  0
  -18.7938  -43.7491   -8.3429 C   0  0  0  0  0  0  0  0  0  0  0  0
  -19.5385  -42.6465   -6.2279 C   0  0  1  0  0  0  0  0  0  0  0  0
  -19.2657  -43.7825   -5.2275 C   0  0  0  0  0  0  0  0  0  0  0  0
  -18.3710  -41.7353   -6.3149 C   0  0  0  0  0  0  0  0  0  0  0  0
  -17.8232  -41.4809   -5.1763 O   0  0  0  0  0  0  0  0  0  0  0  0
  -17.8150  -41.1406   -7.4544 N   0  0  0  0  0  0  0  0  0  0  0  0
  -15.1557  -37.2322  -12.0062 N   0  0  0  0  0  0  0  0  0  0  0  0
  -14.5764  -36.2751  -12.6918 N   0  0  0  0  0  0  0  0  0  0  0  0
  1  2  1  0
  2  3  1  0
  3  4  1  0
  4  5  2  0
  5  6  1  0
  6  7  1  0
  7  8  1  0
  8  9  1  0
  9 10  1  0
 10 11  1  6
 10 12  1  0
 12 13  1  1
 13 14  1  0
 14 15  1  1
 14 16  1  0
 16 17  1  0
 17 18  1  0
 18 19  1  0
 19 20  1  0
 20 21  1  0
 21 22  1  0
 22 23  1  0
 23 24  1  0
 24 25  2  0
 24 26  1  0
 26 27  1  0
 26 28  1  0
 28 29  1  1
 28 30  1  0
 30 31  2  0
 30 32  1  0
  6 33  2  0
 33 34  1  0
 32 12  1  0
 34  4  1  0
M  END
$$$$
