
     RDKit          3D

 34 35  0  0  0  0  0  0  0  0999 V2000
  -13.6651  -34.0981  -13.8721 C   0  0  0  0  0  0  0  0  0  0  0  0
  -13.8570  -35.5569  -13.6213 C   0  0  0  0  0  0  0  0  0  0  0  0
  -12.8551  -36.1476  -12.6718 C   0  0  0  0  0  0  0  0  0  0  0  0
  -13.1480  -37.6075  -12.5396 C   0  0  0  0  0  0  0  0  0  0  0  0
  -13.4968  -38.2753  -11.3853 C   0  0  0  0  0  0  0  0  0  0  0  0
  -13.6704  -39.5870  -11.7185 C   0  0  0  0  0  0  0  0  0  0  0  0
  -14.0544  -40.7359  -10.8311 C   0  0  0  0  0  0  0  0  0  0  0  0
  -14.2577  -40.2446   -9.4819 N   0  0  0  0  0  0  0  0  0  0  0  0
  -15.2619  -41.0021   -8.8017 C   0  0  0  0  0  0  0  0  0  0  0  0
  -16.6364  -40.5168   -9.0499 C   0  0  1  0  0  0  0  0  0  0  0  0
  -16.8198  -40.2201  -10.4007 O   0  0  0  0  0  0  0  0  0  0  0  0
  -17.7576  -41.2891   -8.4530 C   0  0  2  0  0  0  0  0  0  0  0  0
  -19.0508  -40.6262   -8.2400 C   0  0  0  0  0  0  0  0  0  0  0  0
  -19.1246  -39.2559   -7.7188 C   0  0  2  0  0  0  0  0  0  0  0  0
  -18.8052  -39.0637   -6.2586 C   0  0  0  0  0  0  0  0  0  0  0  0
  -20.6190  -38.8627   -7.8335 C   0  0  0  0  0  0  0  0  0  0  0  0
  -21.4791  -39.9649   -7.2549 C   0  0  0  0  0  0  0  0  0  0  0  0
  -22.8415  -39.4632   -6.8308 C   0  0  0  0  0  0  0  0  0  0  0  0
  -23.2983  -40.3218   -5.6500 C   0  0  0  0  0  0  0  0  0  0  0  0
  -24.3242  -41.3357   -6.0332 C   0  0  0  0  0  0  0  0  0  0  0  0
  -23.7972  -42.7567   -6.0678 C   0  0  0  0  0  0  0  0  0  0  0  0
  -22.7536  -42.9443   -6.9356 O   0  0  0  0  0  0  0  0  0  0  0  0
  -21.9336  -44.0088   -6.5704 C   0  0  0  0  0  0  0  0  0  0  0  0
  -20.8092  -44.1576   -7.5137 C   0  0  0  0  0  0  0  0  0  0  0  0
  -21.0884  -44.4245   -8.7113 O   0  0  0  0  0  0  0  0  0  0  0  0
  -19.4507  -44.0201   -7.1570 N   0  0  0  0  0  0  0  0  0  0  0  0
  -18.4039  -44.6459   -7.9397 C   0  0  0  0  0  0  0  0  0  0  0  0
  -19.0976  -43.2431   -5.9918 C   0  0  1  0  0  0  0  0  0  0  0  0
  -18.9423  -44.2704   -4.8577 C   0  0  0  0  0  0  0  0  0  0  0  0
  -17.8560  -42.4462   -6.1486 C   0  0  0  0  0  0  0  0  0  0  0  0
  -17.3129  -42.1034   -5.0311 O   0  0  0  0  0  0  0  0  0  0  0  0
  -17.2283  -42.0382   -7.3321 N   0  0  0  0  0  0  0  0  0  0  0  0
  -13.4280  -39.6839  -13.0414 N   0  0  0  0  0  0  0  0  0  0  0  0
  -13.1161  -38.5109  -13.5399 N   0  0  0  0  0  0  0  0  0  0  0  0
  1  2  1  0
  2  3  1  0
  3  4  1  0
  4  5  2  0
  5  6  1  0
  6  7  1  0
  7  8  1  0
  8  9  1  0
  9 10  1  0
 10 11  1  6
 10 12  1  0
 12 13  1  1
 13 14  1  0
 14 15  1  1
 14 16  1  0
 16 17  1  0
 17 18  1  0
 18 19  1  0
 19 20  1  0
 20 21  1  0
 21 22  1  0
 22 23  1  0
 23 24  1  0
 24 25  2  0
 24 26  1  0
 26 27  1  0
 26 28  1  0
 28 29  1  1
 28 30  1  0
 30 31  2  0
 30 32  1  0
  6 33  2  0
 33 34  1  0
 32 12  1  0
 34  4  1  0
M  END
$$$$
