
     RDKit          3D

 34 35  0  0  0  0  0  0  0  0999 V2000
  -12.2533  -36.4412  -15.4711 C   0  0  0  0  0  0  0  0  0  0  0  0
  -12.2534  -36.8526  -14.0364 C   0  0  0  0  0  0  0  0  0  0  0  0
  -13.6149  -37.1893  -13.5004 C   0  0  0  0  0  0  0  0  0  0  0  0
  -13.4631  -37.5823  -12.0661 C   0  0  0  0  0  0  0  0  0  0  0  0
  -13.4160  -38.8656  -11.5653 C   0  0  0  0  0  0  0  0  0  0  0  0
  -13.2713  -38.7623  -10.2124 C   0  0  0  0  0  0  0  0  0  0  0  0
  -13.1682  -39.8618   -9.1949 C   0  0  0  0  0  0  0  0  0  0  0  0
  -14.1761  -39.6567   -8.1725 N   0  0  0  0  0  0  0  0  0  0  0  0
  -15.4932  -39.8187   -8.7052 C   0  0  0  0  0  0  0  0  0  0  0  0
  -16.5573  -39.7428   -7.6813 C   0  0  1  0  0  0  0  0  0  0  0  0
  -16.8805  -38.4149   -7.4012 O   0  0  0  0  0  0  0  0  0  0  0  0
  -17.7448  -40.6199   -7.8560 C   0  0  2  0  0  0  0  0  0  0  0  0
  -19.0351  -40.0163   -8.2132 C   0  0  0  0  0  0  0  0  0  0  0  0
  -19.4891  -38.7689   -7.5863 C   0  0  2  0  0  0  0  0  0  0  0  0
  -19.9452  -38.8532   -6.1524 C   0  0  0  0  0  0  0  0  0  0  0  0
  -20.7671  -38.3696   -8.3663 C   0  0  0  0  0  0  0  0  0  0  0  0
  -21.6867  -39.5658   -8.4793 C   0  0  0  0  0  0  0  0  0  0  0  0
  -23.1244  -39.1605   -8.7170 C   0  0  0  0  0  0  0  0  0  0  0  0
  -24.0129  -40.2286   -8.0768 C   0  0  0  0  0  0  0  0  0  0  0  0
  -24.6147  -41.1581   -9.0775 C   0  0  0  0  0  0  0  0  0  0  0  0
  -24.0008  -42.5442   -9.0720 C   0  0  0  0  0  0  0  0  0  0  0  0
  -22.6535  -42.5591   -9.3208 O   0  0  0  0  0  0  0  0  0  0  0  0
  -22.0163  -43.6687   -8.7715 C   0  0  0  0  0  0  0  0  0  0  0  0
  -20.5659  -43.6311   -9.0379 C   0  0  0  0  0  0  0  0  0  0  0  0
  -20.1960  -43.6693  -10.2401 O   0  0  0  0  0  0  0  0  0  0  0  0
  -19.5764  -43.5555   -8.0345 N   0  0  0  0  0  0  0  0  0  0  0  0
  -18.2247  -44.0169   -8.2795 C   0  0  0  0  0  0  0  0  0  0  0  0
  -19.9167  -43.0097   -6.7413 C   0  0  1  0  0  0  0  0  0  0  0  0
  -20.2353  -44.2312   -5.8627 C   0  0  0  0  0  0  0  0  0  0  0  0
  -18.8426  -42.1906   -6.1278 C   0  0  0  0  0  0  0  0  0  0  0  0
  -18.9520  -42.0612   -4.8501 O   0  0  0  0  0  0  0  0  0  0  0  0
  -17.7601  -41.5636   -6.7573 N   0  0  0  0  0  0  0  0  0  0  0  0
  -13.2344  -37.4448   -9.9283 N   0  0  0  0  0  0  0  0  0  0  0  0
  -13.3479  -36.7334  -11.0250 N   0  0  0  0  0  0  0  0  0  0  0  0
  1  2  1  0
  2  3  1  0
  3  4  1  0
  4  5  2  0
  5  6  1  0
  6  7  1  0
  7  8  1  0
  8  9  1  0
  9 10  1  0
 10 11  1  6
 10 12  1  0
 12 13  1  1
 13 14  1  0
 14 15  1  1
 14 16  1  0
 16 17  1  0
 17 18  1  0
 18 19  1  0
 19 20  1  0
 20 21  1  0
 21 22  1  0
 22 23  1  0
 23 24  1  0
 24 25  2  0
 24 26  1  0
 26 27  1  0
 26 28  1  0
 28 29  1  1
 28 30  1  0
 30 31  2  0
 30 32  1  0
  6 33  2  0
 33 34  1  0
 32 12  1  0
 34  4  1  0
M  END
$$$$
