
     RDKit          3D

 34 35  0  0  0  0  0  0  0  0999 V2000
  -11.3635  -34.5524  -14.3227 C   0  0  0  0  0  0  0  0  0  0  0  0
  -11.9727  -35.5267  -13.3701 C   0  0  0  0  0  0  0  0  0  0  0  0
  -12.7299  -36.6378  -14.0380 C   0  0  0  0  0  0  0  0  0  0  0  0
  -13.2694  -37.5361  -12.9719 C   0  0  0  0  0  0  0  0  0  0  0  0
  -13.5909  -37.1787  -11.6800 C   0  0  0  0  0  0  0  0  0  0  0  0
  -14.0439  -38.3036  -11.0544 C   0  0  0  0  0  0  0  0  0  0  0  0
  -14.5217  -38.4604   -9.6395 C   0  0  0  0  0  0  0  0  0  0  0  0
  -15.9412  -38.1686   -9.5840 N   0  0  0  0  0  0  0  0  0  0  0  0
  -16.4385  -38.2728   -8.2474 C   0  0  0  0  0  0  0  0  0  0  0  0
  -16.2594  -39.6153   -7.6542 C   0  0  1  0  0  0  0  0  0  0  0  0
  -15.8041  -39.5184   -6.3390 O   0  0  0  0  0  0  0  0  0  0  0  0
  -17.3598  -40.5990   -7.8317 C   0  0  2  0  0  0  0  0  0  0  0  0
  -18.7188  -40.1126   -8.1034 C   0  0  0  0  0  0  0  0  0  0  0  0
  -19.2668  -38.9529   -7.3894 C   0  0  2  0  0  0  0  0  0  0  0  0
  -19.6477  -39.1585   -5.9459 C   0  0  0  0  0  0  0  0  0  0  0  0
  -20.6119  -38.6461   -8.0950 C   0  0  0  0  0  0  0  0  0  0  0  0
  -21.4113  -39.9226   -8.2395 C   0  0  0  0  0  0  0  0  0  0  0  0
  -22.8915  -39.6546   -8.3975 C   0  0  0  0  0  0  0  0  0  0  0  0
  -23.6392  -40.8402   -7.7846 C   0  0  0  0  0  0  0  0  0  0  0  0
  -24.1892  -41.7725   -8.8121 C   0  0  0  0  0  0  0  0  0  0  0  0
  -23.4401  -43.0869   -8.9092 C   0  0  0  0  0  0  0  0  0  0  0  0
  -22.1104  -42.9509   -9.2109 O   0  0  0  0  0  0  0  0  0  0  0  0
  -21.3416  -44.0167   -8.7508 C   0  0  0  0  0  0  0  0  0  0  0  0
  -19.9155  -43.8169   -9.0712 C   0  0  0  0  0  0  0  0  0  0  0  0
  -19.5977  -43.7540  -10.2871 O   0  0  0  0  0  0  0  0  0  0  0  0
  -18.8947  -43.6932   -8.1045 N   0  0  0  0  0  0  0  0  0  0  0  0
  -17.5159  -44.0004   -8.4280 C   0  0  0  0  0  0  0  0  0  0  0  0
  -19.2299  -43.2537   -6.7701 C   0  0  1  0  0  0  0  0  0  0  0  0
  -19.3851  -44.5457   -5.9504 C   0  0  0  0  0  0  0  0  0  0  0  0
  -18.2168  -42.3622   -6.1537 C   0  0  0  0  0  0  0  0  0  0  0  0
  -18.2814  -42.3119   -4.8675 O   0  0  0  0  0  0  0  0  0  0  0  0
  -17.2316  -41.5956   -6.7885 N   0  0  0  0  0  0  0  0  0  0  0  0
  -13.9884  -39.2985  -11.9627 N   0  0  0  0  0  0  0  0  0  0  0  0
  -13.5286  -38.8523  -13.1078 N   0  0  0  0  0  0  0  0  0  0  0  0
  1  2  1  0
  2  3  1  0
  3  4  1  0
  4  5  2  0
  5  6  1  0
  6  7  1  0
  7  8  1  0
  8  9  1  0
  9 10  1  0
 10 11  1  1
 10 12  1  0
 12 13  1  1
 13 14  1  0
 14 15  1  1
 14 16  1  0
 16 17  1  0
 17 18  1  0
 18 19  1  0
 19 20  1  0
 20 21  1  0
 21 22  1  0
 22 23  1  0
 23 24  1  0
 24 25  2  0
 24 26  1  0
 26 27  1  0
 26 28  1  0
 28 29  1  1
 28 30  1  0
 30 31  2  0
 30 32  1  0
  6 33  2  0
 33 34  1  0
 32 12  1  0
 34  4  1  0
M  END
$$$$
