
     RDKit          3D

 34 35  0  0  0  0  0  0  0  0999 V2000
  -14.4197  -33.6125  -13.5720 C   0  0  0  0  0  0  0  0  0  0  0  0
  -14.0405  -34.9926  -13.1486 C   0  0  0  0  0  0  0  0  0  0  0  0
  -15.1683  -35.7723  -12.5366 C   0  0  0  0  0  0  0  0  0  0  0  0
  -14.6621  -37.1410  -12.2128 C   0  0  0  0  0  0  0  0  0  0  0  0
  -14.6214  -37.7297  -10.9671 C   0  0  0  0  0  0  0  0  0  0  0  0
  -14.0870  -38.9746  -11.1299 C   0  0  0  0  0  0  0  0  0  0  0  0
  -13.8250  -40.0248  -10.0890 C   0  0  0  0  0  0  0  0  0  0  0  0
  -14.2366  -39.5201   -8.7932 N   0  0  0  0  0  0  0  0  0  0  0  0
  -15.2154  -40.3728   -8.1935 C   0  0  0  0  0  0  0  0  0  0  0  0
  -16.6034  -39.8966   -8.3748 C   0  0  1  0  0  0  0  0  0  0  0  0
  -16.7239  -39.1604   -9.5537 O   0  0  0  0  0  0  0  0  0  0  0  0
  -17.7006  -40.8791   -8.1723 C   0  0  2  0  0  0  0  0  0  0  0  0
  -19.0944  -40.4274   -8.2726 C   0  0  0  0  0  0  0  0  0  0  0  0
  -19.5231  -39.1517   -7.6861 C   0  0  2  0  0  0  0  0  0  0  0  0
  -19.6306  -39.0938   -6.1841 C   0  0  0  0  0  0  0  0  0  0  0  0
  -20.9794  -38.9534   -8.1770 C   0  0  0  0  0  0  0  0  0  0  0  0
  -21.7695  -40.2229   -7.9460 C   0  0  0  0  0  0  0  0  0  0  0  0
  -23.2581  -39.9643   -7.8757 C   0  0  0  0  0  0  0  0  0  0  0  0
  -23.8608  -41.0116   -6.9375 C   0  0  0  0  0  0  0  0  0  0  0  0
  -24.5728  -42.1019   -7.6668 C   0  0  0  0  0  0  0  0  0  0  0  0
  -23.8313  -43.4242   -7.6662 C   0  0  0  0  0  0  0  0  0  0  0  0
  -22.5816  -43.3639   -8.2248 O   0  0  0  0  0  0  0  0  0  0  0  0
  -21.7234  -44.3436   -7.7324 C   0  0  0  0  0  0  0  0  0  0  0  0
  -20.3834  -44.2254   -8.3380 C   0  0  0  0  0  0  0  0  0  0  0  0
  -20.2939  -44.3827   -9.5832 O   0  0  0  0  0  0  0  0  0  0  0  0
  -19.2057  -43.9490   -7.6111 N   0  0  0  0  0  0  0  0  0  0  0  0
  -17.9039  -44.3295   -8.1217 C   0  0  0  0  0  0  0  0  0  0  0  0
  -19.2993  -43.2760   -6.3366 C   0  0  1  0  0  0  0  0  0  0  0  0
  -19.2799  -44.4008   -5.2878 C   0  0  0  0  0  0  0  0  0  0  0  0
  -18.2063  -42.3056   -6.0823 C   0  0  0  0  0  0  0  0  0  0  0  0
  -18.0361  -42.0284   -4.8352 O   0  0  0  0  0  0  0  0  0  0  0  0
  -17.3669  -41.6781   -7.0112 N   0  0  0  0  0  0  0  0  0  0  0  0
  -13.8207  -39.1107  -12.4446 N   0  0  0  0  0  0  0  0  0  0  0  0
  -14.1593  -38.0247  -13.0984 N   0  0  0  0  0  0  0  0  0  0  0  0
  1  2  1  0
  2  3  1  0
  3  4  1  0
  4  5  2  0
  5  6  1  0
  6  7  1  0
  7  8  1  0
  8  9  1  0
  9 10  1  0
 10 11  1  6
 10 12  1  0
 12 13  1  1
 13 14  1  0
 14 15  1  1
 14 16  1  0
 16 17  1  0
 17 18  1  0
 18 19  1  0
 19 20  1  0
 20 21  1  0
 21 22  1  0
 22 23  1  0
 23 24  1  0
 24 25  2  0
 24 26  1  0
 26 27  1  0
 26 28  1  0
 28 29  1  1
 28 30  1  0
 30 31  2  0
 30 32  1  0
  6 33  2  0
 33 34  1  0
 32 12  1  0
 34  4  1  0
M  END
$$$$
