
     RDKit          3D

 34 35  0  0  0  0  0  0  0  0999 V2000
  -12.8084  -33.6907  -12.2924 C   0  0  0  0  0  0  0  0  0  0  0  0
  -12.6855  -35.1723  -12.1598 C   0  0  0  0  0  0  0  0  0  0  0  0
  -13.9998  -35.8972  -12.1960 C   0  0  0  0  0  0  0  0  0  0  0  0
  -13.7261  -37.3591  -12.0462 C   0  0  0  0  0  0  0  0  0  0  0  0
  -13.9520  -38.1276  -10.9245 C   0  0  0  0  0  0  0  0  0  0  0  0
  -13.5601  -39.3997  -11.2252 C   0  0  0  0  0  0  0  0  0  0  0  0
  -13.5958  -40.6215  -10.3530 C   0  0  0  0  0  0  0  0  0  0  0  0
  -14.2685  -40.2964   -9.1100 N   0  0  0  0  0  0  0  0  0  0  0  0
  -15.6832  -40.4684   -9.2274 C   0  0  0  0  0  0  0  0  0  0  0  0
  -16.3985  -40.3711   -7.9370 C   0  0  1  0  0  0  0  0  0  0  0  0
  -16.4697  -39.0451   -7.5096 O   0  0  0  0  0  0  0  0  0  0  0  0
  -17.6823  -41.1087   -7.8040 C   0  0  2  0  0  0  0  0  0  0  0  0
  -18.9398  -40.4225   -8.1277 C   0  0  0  0  0  0  0  0  0  0  0  0
  -19.1764  -39.0349   -7.7111 C   0  0  2  0  0  0  0  0  0  0  0  0
  -19.4447  -38.7990   -6.2470 C   0  0  0  0  0  0  0  0  0  0  0  0
  -20.4986  -38.6263   -8.4081 C   0  0  0  0  0  0  0  0  0  0  0  0
  -21.5430  -39.6977   -8.1821 C   0  0  0  0  0  0  0  0  0  0  0  0
  -22.9502  -39.1646   -8.3342 C   0  0  0  0  0  0  0  0  0  0  0  0
  -23.8509  -39.9780   -7.4028 C   0  0  0  0  0  0  0  0  0  0  0  0
  -24.6722  -40.9906   -8.1292 C   0  0  0  0  0  0  0  0  0  0  0  0
  -24.2085  -42.4186   -7.9202 C   0  0  0  0  0  0  0  0  0  0  0  0
  -22.9147  -42.6481   -8.3086 O   0  0  0  0  0  0  0  0  0  0  0  0
  -22.3276  -43.7106   -7.6264 C   0  0  0  0  0  0  0  0  0  0  0  0
  -20.9291  -43.9050   -8.0538 C   0  0  0  0  0  0  0  0  0  0  0  0
  -20.7276  -44.2075   -9.2585 O   0  0  0  0  0  0  0  0  0  0  0  0
  -19.8129  -43.7735   -7.2002 N   0  0  0  0  0  0  0  0  0  0  0  0
  -18.5601  -44.4382   -7.4979 C   0  0  0  0  0  0  0  0  0  0  0  0
  -19.9211  -42.9631   -6.0095 C   0  0  1  0  0  0  0  0  0  0  0  0
  -20.2441  -43.9545   -4.8788 C   0  0  0  0  0  0  0  0  0  0  0  0
  -18.6969  -42.1881   -5.6910 C   0  0  0  0  0  0  0  0  0  0  0  0
  -18.6222  -41.8158   -4.4593 O   0  0  0  0  0  0  0  0  0  0  0  0
  -17.6487  -41.8274   -6.5469 N   0  0  0  0  0  0  0  0  0  0  0  0
  -13.1142  -39.3749  -12.4974 N   0  0  0  0  0  0  0  0  0  0  0  0
  -13.2087  -38.1647  -12.9955 N   0  0  0  0  0  0  0  0  0  0  0  0
  1  2  1  0
  2  3  1  0
  3  4  1  0
  4  5  2  0
  5  6  1  0
  6  7  1  0
  7  8  1  0
  8  9  1  0
  9 10  1  0
 10 11  1  6
 10 12  1  0
 12 13  1  1
 13 14  1  0
 14 15  1  1
 14 16  1  0
 16 17  1  0
 17 18  1  0
 18 19  1  0
 19 20  1  0
 20 21  1  0
 21 22  1  0
 22 23  1  0
 23 24  1  0
 24 25  2  0
 24 26  1  0
 26 27  1  0
 26 28  1  0
 28 29  1  1
 28 30  1  0
 30 31  2  0
 30 32  1  0
  6 33  2  0
 33 34  1  0
 32 12  1  0
 34  4  1  0
M  END
$$$$
