
     RDKit          3D

 34 35  0  0  0  0  0  0  0  0999 V2000
  -11.9459  -35.5229   -4.5266 C   0  0  0  0  0  0  0  0  0  0  0  0
  -12.6699  -36.7662   -4.9237 C   0  0  0  0  0  0  0  0  0  0  0  0
  -11.8037  -37.7805   -5.6129 C   0  0  0  0  0  0  0  0  0  0  0  0
  -12.2913  -37.9265   -7.0184 C   0  0  0  0  0  0  0  0  0  0  0  0
  -13.1024  -38.9277   -7.5080 C   0  0  0  0  0  0  0  0  0  0  0  0
  -13.2967  -38.6730   -8.8343 C   0  0  0  0  0  0  0  0  0  0  0  0
  -14.1013  -39.4572   -9.8306 C   0  0  0  0  0  0  0  0  0  0  0  0
  -15.0335  -40.3108   -9.1195 N   0  0  0  0  0  0  0  0  0  0  0  0
  -15.8414  -39.5532   -8.2150 C   0  0  0  0  0  0  0  0  0  0  0  0
  -17.1744  -39.2136   -8.7572 C   0  0  1  0  0  0  0  0  0  0  0  0
  -17.0611  -38.3316   -9.8322 O   0  0  0  0  0  0  0  0  0  0  0  0
  -18.1233  -40.3314   -9.0023 C   0  0  2  0  0  0  0  0  0  0  0  0
  -19.5649  -40.0933   -8.8531 C   0  0  0  0  0  0  0  0  0  0  0  0
  -20.0912  -39.2966   -7.7381 C   0  0  2  0  0  0  0  0  0  0  0  0
  -20.0734  -39.9374   -6.3742 C   0  0  0  0  0  0  0  0  0  0  0  0
  -21.5980  -39.1150   -8.0506 C   0  0  0  0  0  0  0  0  0  0  0  0
  -22.2064  -40.4534   -8.4087 C   0  0  0  0  0  0  0  0  0  0  0  0
  -23.7034  -40.4760   -8.1941 C   0  0  0  0  0  0  0  0  0  0  0  0
  -24.0914  -41.9093   -7.8262 C   0  0  0  0  0  0  0  0  0  0  0  0
  -24.7277  -42.6461   -8.9574 C   0  0  0  0  0  0  0  0  0  0  0  0
  -23.8352  -43.7021   -9.5791 C   0  0  0  0  0  0  0  0  0  0  0  0
  -22.6554  -43.2139  -10.0763 O   0  0  0  0  0  0  0  0  0  0  0  0
  -21.6457  -44.1723  -10.1067 C   0  0  0  0  0  0  0  0  0  0  0  0
  -20.3877  -43.5986  -10.6211 C   0  0  0  0  0  0  0  0  0  0  0  0
  -20.3889  -43.1636  -11.8018 O   0  0  0  0  0  0  0  0  0  0  0  0
  -19.1930  -43.5092   -9.8752 N   0  0  0  0  0  0  0  0  0  0  0  0
  -17.9044  -43.4232  -10.5327 C   0  0  0  0  0  0  0  0  0  0  0  0
  -19.2554  -43.5038   -8.4322 C   0  0  1  0  0  0  0  0  0  0  0  0
  -19.0093  -44.9637   -8.0156 C   0  0  0  0  0  0  0  0  0  0  0  0
  -18.2693  -42.6028   -7.7866 C   0  0  0  0  0  0  0  0  0  0  0  0
  -18.0255  -42.8949   -6.5552 O   0  0  0  0  0  0  0  0  0  0  0  0
  -17.5959  -41.5087   -8.3439 N   0  0  0  0  0  0  0  0  0  0  0  0
  -12.6128  -37.5452   -9.1143 N   0  0  0  0  0  0  0  0  0  0  0  0
  -12.0106  -37.0926   -8.0400 N   0  0  0  0  0  0  0  0  0  0  0  0
  1  2  1  0
  2  3  1  0
  3  4  1  0
  4  5  2  0
  5  6  1  0
  6  7  1  0
  7  8  1  0
  8  9  1  0
  9 10  1  0
 10 11  1  6
 10 12  1  0
 12 13  1  1
 13 14  1  0
 14 15  1  1
 14 16  1  0
 16 17  1  0
 17 18  1  0
 18 19  1  0
 19 20  1  0
 20 21  1  0
 21 22  1  0
 22 23  1  0
 23 24  1  0
 24 25  2  0
 24 26  1  0
 26 27  1  0
 26 28  1  0
 28 29  1  1
 28 30  1  0
 30 31  2  0
 30 32  1  0
  6 33  2  0
 33 34  1  0
 32 12  1  0
 34  4  1  0
M  END
$$$$
