
     RDKit          3D

 34 35  0  0  0  0  0  0  0  0999 V2000
  -11.6686  -35.2963  -13.9467 C   0  0  0  0  0  0  0  0  0  0  0  0
  -11.9125  -36.6154  -13.2923 C   0  0  0  0  0  0  0  0  0  0  0  0
  -13.3642  -36.9856  -13.1927 C   0  0  0  0  0  0  0  0  0  0  0  0
  -13.4520  -38.3615  -12.6150 C   0  0  0  0  0  0  0  0  0  0  0  0
  -13.8736  -38.6956  -11.3460 C   0  0  0  0  0  0  0  0  0  0  0  0
  -13.7941  -40.0538  -11.2422 C   0  0  0  0  0  0  0  0  0  0  0  0
  -14.1361  -40.9250  -10.0679 C   0  0  0  0  0  0  0  0  0  0  0  0
  -14.5114  -40.0839   -8.9477 N   0  0  0  0  0  0  0  0  0  0  0  0
  -15.4611  -39.0904   -9.3427 C   0  0  0  0  0  0  0  0  0  0  0  0
  -16.6168  -38.9818   -8.4268 C   0  0  1  0  0  0  0  0  0  0  0  0
  -17.2569  -37.7519   -8.5816 O   0  0  0  0  0  0  0  0  0  0  0  0
  -17.5525  -40.1350   -8.3590 C   0  0  2  0  0  0  0  0  0  0  0  0
  -18.9836  -39.8848   -8.1437 C   0  0  0  0  0  0  0  0  0  0  0  0
  -19.4415  -38.8803   -7.1760 C   0  0  2  0  0  0  0  0  0  0  0  0
  -19.3000  -39.2259   -5.7160 C   0  0  0  0  0  0  0  0  0  0  0  0
  -20.9724  -38.7812   -7.3942 C   0  0  0  0  0  0  0  0  0  0  0  0
  -21.5718  -40.1703   -7.4195 C   0  0  0  0  0  0  0  0  0  0  0  0
  -23.0463  -40.1623   -7.0825 C   0  0  0  0  0  0  0  0  0  0  0  0
  -23.3667  -41.4925   -6.3984 C   0  0  0  0  0  0  0  0  0  0  0  0
  -24.0704  -42.4526   -7.2986 C   0  0  0  0  0  0  0  0  0  0  0  0
  -23.2021  -43.6057   -7.7621 C   0  0  0  0  0  0  0  0  0  0  0  0
  -22.0781  -43.2194   -8.4439 O   0  0  0  0  0  0  0  0  0  0  0  0
  -21.0493  -44.1539   -8.3603 C   0  0  0  0  0  0  0  0  0  0  0  0
  -19.8509  -43.6869   -9.0829 C   0  0  0  0  0  0  0  0  0  0  0  0
  -19.9561  -43.5047  -10.3235 O   0  0  0  0  0  0  0  0  0  0  0  0
  -18.6041  -43.4344   -8.4719 N   0  0  0  0  0  0  0  0  0  0  0  0
  -17.3738  -43.4737   -9.2366 C   0  0  0  0  0  0  0  0  0  0  0  0
  -18.5532  -43.1322   -7.0604 C   0  0  1  0  0  0  0  0  0  0  0  0
  -18.2371  -44.4725   -6.3754 C   0  0  0  0  0  0  0  0  0  0  0  0
  -17.5433  -42.1083   -6.6962 C   0  0  0  0  0  0  0  0  0  0  0  0
  -17.1961  -42.1379   -5.4553 O   0  0  0  0  0  0  0  0  0  0  0  0
  -16.9445  -41.1462   -7.5191 N   0  0  0  0  0  0  0  0  0  0  0  0
  -13.3353  -40.5046  -12.4272 N   0  0  0  0  0  0  0  0  0  0  0  0
  -13.1283  -39.5051  -13.2517 N   0  0  0  0  0  0  0  0  0  0  0  0
  1  2  1  0
  2  3  1  0
  3  4  1  0
  4  5  2  0
  5  6  1  0
  6  7  1  0
  7  8  1  0
  8  9  1  0
  9 10  1  0
 10 11  1  6
 10 12  1  0
 12 13  1  1
 13 14  1  0
 14 15  1  1
 14 16  1  0
 16 17  1  0
 17 18  1  0
 18 19  1  0
 19 20  1  0
 20 21  1  0
 21 22  1  0
 22 23  1  0
 23 24  1  0
 24 25  2  0
 24 26  1  0
 26 27  1  0
 26 28  1  0
 28 29  1  1
 28 30  1  0
 30 31  2  0
 30 32  1  0
  6 33  2  0
 33 34  1  0
 32 12  1  0
 34  4  1  0
M  END
$$$$
