
     RDKit          3D

 34 35  0  0  0  0  0  0  0  0999 V2000
  -11.7583  -37.1676  -16.2005 C   0  0  0  0  0  0  0  0  0  0  0  0
  -11.9655  -37.4568  -14.7510 C   0  0  0  0  0  0  0  0  0  0  0  0
  -13.2187  -36.8552  -14.1839 C   0  0  0  0  0  0  0  0  0  0  0  0
  -13.3249  -37.2715  -12.7521 C   0  0  0  0  0  0  0  0  0  0  0  0
  -13.2504  -38.5575  -12.2616 C   0  0  0  0  0  0  0  0  0  0  0  0
  -13.3974  -38.4786  -10.9073 C   0  0  0  0  0  0  0  0  0  0  0  0
  -13.3931  -39.5908   -9.8984 C   0  0  0  0  0  0  0  0  0  0  0  0
  -14.6459  -40.3160   -9.9880 N   0  0  0  0  0  0  0  0  0  0  0  0
  -15.7475  -39.4961   -9.5892 C   0  0  0  0  0  0  0  0  0  0  0  0
  -16.2847  -39.8379   -8.2547 C   0  0  1  0  0  0  0  0  0  0  0  0
  -16.4061  -38.6958   -7.4629 O   0  0  0  0  0  0  0  0  0  0  0  0
  -17.4728  -40.7298   -8.1985 C   0  0  2  0  0  0  0  0  0  0  0  0
  -18.7991  -40.1765   -8.5015 C   0  0  0  0  0  0  0  0  0  0  0  0
  -19.2051  -38.8588   -7.9975 C   0  0  2  0  0  0  0  0  0  0  0  0
  -19.5183  -38.7583   -6.5269 C   0  0  0  0  0  0  0  0  0  0  0  0
  -20.5577  -38.5624   -8.6930 C   0  0  0  0  0  0  0  0  0  0  0  0
  -21.4693  -39.7629   -8.5614 C   0  0  0  0  0  0  0  0  0  0  0  0
  -22.9281  -39.3909   -8.7066 C   0  0  0  0  0  0  0  0  0  0  0  0
  -23.7369  -40.3677   -7.8511 C   0  0  0  0  0  0  0  0  0  0  0  0
  -24.4219  -41.4177   -8.6609 C   0  0  0  0  0  0  0  0  0  0  0  0
  -23.7936  -42.7918   -8.5388 C   0  0  0  0  0  0  0  0  0  0  0  0
  -22.4767  -42.8391   -8.9146 O   0  0  0  0  0  0  0  0  0  0  0  0
  -21.7756  -43.8692   -8.2933 C   0  0  0  0  0  0  0  0  0  0  0  0
  -20.3585  -43.8667   -8.7035 C   0  0  0  0  0  0  0  0  0  0  0  0
  -20.1070  -44.0590   -9.9213 O   0  0  0  0  0  0  0  0  0  0  0  0
  -19.2770  -43.6633   -7.8199 N   0  0  0  0  0  0  0  0  0  0  0  0
  -17.9501  -44.1529   -8.1354 C   0  0  0  0  0  0  0  0  0  0  0  0
  -19.4965  -42.9559   -6.5798 C   0  0  1  0  0  0  0  0  0  0  0  0
  -19.7130  -44.0545   -5.5254 C   0  0  0  0  0  0  0  0  0  0  0  0
  -18.3778  -42.0653   -6.1845 C   0  0  0  0  0  0  0  0  0  0  0  0
  -18.3638  -41.7730   -4.9293 O   0  0  0  0  0  0  0  0  0  0  0  0
  -17.3695  -41.5247   -6.9921 N   0  0  0  0  0  0  0  0  0  0  0  0
  -13.5545  -37.1724  -10.6122 N   0  0  0  0  0  0  0  0  0  0  0  0
  -13.5129  -36.4450  -11.7035 N   0  0  0  0  0  0  0  0  0  0  0  0
  1  2  1  0
  2  3  1  0
  3  4  1  0
  4  5  2  0
  5  6  1  0
  6  7  1  0
  7  8  1  0
  8  9  1  0
  9 10  1  0
 10 11  1  6
 10 12  1  0
 12 13  1  1
 13 14  1  0
 14 15  1  1
 14 16  1  0
 16 17  1  0
 17 18  1  0
 18 19  1  0
 19 20  1  0
 20 21  1  0
 21 22  1  0
 22 23  1  0
 23 24  1  0
 24 25  2  0
 24 26  1  0
 26 27  1  0
 26 28  1  0
 28 29  1  1
 28 30  1  0
 30 31  2  0
 30 32  1  0
  6 33  2  0
 33 34  1  0
 32 12  1  0
 34  4  1  0
M  END
$$$$
