
     RDKit          3D

 34 35  0  0  0  0  0  0  0  0999 V2000
  -12.0140  -42.6600  -15.0489 C   0  0  0  0  0  0  0  0  0  0  0  0
  -12.2888  -42.0359  -13.7213 C   0  0  0  0  0  0  0  0  0  0  0  0
  -12.9654  -40.6983  -13.8065 C   0  0  0  0  0  0  0  0  0  0  0  0
  -13.2580  -40.2385  -12.4145 C   0  0  0  0  0  0  0  0  0  0  0  0
  -13.9845  -39.1247  -12.0517 C   0  0  0  0  0  0  0  0  0  0  0  0
  -14.0017  -39.0847  -10.6879 C   0  0  0  0  0  0  0  0  0  0  0  0
  -14.6561  -38.0756   -9.7887 C   0  0  0  0  0  0  0  0  0  0  0  0
  -15.0325  -38.7223   -8.5464 N   0  0  0  0  0  0  0  0  0  0  0  0
  -15.9972  -39.7535   -8.7720 C   0  0  0  0  0  0  0  0  0  0  0  0
  -17.3940  -39.3061   -8.5843 C   0  0  1  0  0  0  0  0  0  0  0  0
  -17.8127  -38.5261   -9.6625 O   0  0  0  0  0  0  0  0  0  0  0  0
  -18.3924  -40.3239   -8.1633 C   0  0  2  0  0  0  0  0  0  0  0  0
  -19.7500  -39.8914   -7.8074 C   0  0  0  0  0  0  0  0  0  0  0  0
  -19.9758  -38.6844   -7.0030 C   0  0  2  0  0  0  0  0  0  0  0  0
  -19.6372  -38.7689   -5.5370 C   0  0  0  0  0  0  0  0  0  0  0  0
  -21.5102  -38.4688   -7.0245 C   0  0  0  0  0  0  0  0  0  0  0  0
  -22.2095  -39.7692   -6.6934 C   0  0  0  0  0  0  0  0  0  0  0  0
  -23.6093  -39.5466   -6.1658 C   0  0  0  0  0  0  0  0  0  0  0  0
  -23.9198  -40.6880   -5.1958 C   0  0  0  0  0  0  0  0  0  0  0  0
  -24.8245  -41.7189   -5.7843 C   0  0  0  0  0  0  0  0  0  0  0  0
  -24.1278  -43.0212   -6.1262 C   0  0  0  0  0  0  0  0  0  0  0  0
  -23.0966  -42.8853   -7.0182 O   0  0  0  0  0  0  0  0  0  0  0  0
  -22.1407  -43.8902   -6.8941 C   0  0  0  0  0  0  0  0  0  0  0  0
  -21.0365  -43.6906   -7.8517 C   0  0  0  0  0  0  0  0  0  0  0  0
  -21.3179  -43.7293   -9.0776 O   0  0  0  0  0  0  0  0  0  0  0  0
  -19.6948  -43.4608   -7.4791 N   0  0  0  0  0  0  0  0  0  0  0  0
  -18.6038  -43.7673   -8.3824 C   0  0  0  0  0  0  0  0  0  0  0  0
  -19.4040  -42.9116   -6.1753 C   0  0  1  0  0  0  0  0  0  0  0  0
  -19.0881  -44.1287   -5.2898 C   0  0  0  0  0  0  0  0  0  0  0  0
  -18.2756  -41.9485   -6.1618 C   0  0  0  0  0  0  0  0  0  0  0  0
  -17.7442  -41.7856   -4.9989 O   0  0  0  0  0  0  0  0  0  0  0  0
  -17.7401  -41.2213   -7.2321 N   0  0  0  0  0  0  0  0  0  0  0  0
  -13.2994  -40.1540  -10.2622 N   0  0  0  0  0  0  0  0  0  0  0  0
  -12.8522  -40.8476  -11.2822 N   0  0  0  0  0  0  0  0  0  0  0  0
  1  2  1  0
  2  3  1  0
  3  4  1  0
  4  5  2  0
  5  6  1  0
  6  7  1  0
  7  8  1  0
  8  9  1  0
  9 10  1  0
 10 11  1  6
 10 12  1  0
 12 13  1  1
 13 14  1  0
 14 15  1  1
 14 16  1  0
 16 17  1  0
 17 18  1  0
 18 19  1  0
 19 20  1  0
 20 21  1  0
 21 22  1  0
 22 23  1  0
 23 24  1  0
 24 25  2  0
 24 26  1  0
 26 27  1  0
 26 28  1  0
 28 29  1  1
 28 30  1  0
 30 31  2  0
 30 32  1  0
  6 33  2  0
 33 34  1  0
 32 12  1  0
 34  4  1  0
M  END
$$$$
