
     RDKit          3D

 34 35  0  0  0  0  0  0  0  0999 V2000
  -11.1796  -35.2133  -13.6661 C   0  0  0  0  0  0  0  0  0  0  0  0
  -11.6499  -36.4090  -12.9065 C   0  0  0  0  0  0  0  0  0  0  0  0
  -13.1399  -36.5926  -12.9231 C   0  0  0  0  0  0  0  0  0  0  0  0
  -13.4473  -37.9330  -12.3371 C   0  0  0  0  0  0  0  0  0  0  0  0
  -13.2341  -38.3299  -11.0344 C   0  0  0  0  0  0  0  0  0  0  0  0
  -13.6560  -39.6239  -10.9360 C   0  0  0  0  0  0  0  0  0  0  0  0
  -13.6442  -40.5239   -9.7340 C   0  0  0  0  0  0  0  0  0  0  0  0
  -14.5709  -40.0062   -8.7458 N   0  0  0  0  0  0  0  0  0  0  0  0
  -15.7166  -39.4196   -9.3689 C   0  0  0  0  0  0  0  0  0  0  0  0
  -16.8292  -39.1579   -8.4309 C   0  0  1  0  0  0  0  0  0  0  0  0
  -17.4467  -37.9415   -8.7229 O   0  0  0  0  0  0  0  0  0  0  0  0
  -17.7875  -40.2648   -8.1732 C   0  0  2  0  0  0  0  0  0  0  0  0
  -19.1653  -39.9427   -7.7797 C   0  0  0  0  0  0  0  0  0  0  0  0
  -19.4489  -38.8725   -6.8157 C   0  0  2  0  0  0  0  0  0  0  0  0
  -19.1200  -39.1510   -5.3716 C   0  0  0  0  0  0  0  0  0  0  0  0
  -20.9907  -38.7184   -6.8291 C   0  0  0  0  0  0  0  0  0  0  0  0
  -21.6375  -40.0798   -6.6962 C   0  0  0  0  0  0  0  0  0  0  0  0
  -23.0501  -39.9914   -6.1630 C   0  0  0  0  0  0  0  0  0  0  0  0
  -23.3208  -41.2709   -5.3694 C   0  0  0  0  0  0  0  0  0  0  0  0
  -24.1759  -42.2433   -6.1115 C   0  0  0  0  0  0  0  0  0  0  0  0
  -23.4219  -43.4544   -6.6243 C   0  0  0  0  0  0  0  0  0  0  0  0
  -22.3895  -43.1514   -7.4727 O   0  0  0  0  0  0  0  0  0  0  0  0
  -21.3932  -44.1241   -7.4782 C   0  0  0  0  0  0  0  0  0  0  0  0
  -20.2899  -43.7458   -8.3814 C   0  0  0  0  0  0  0  0  0  0  0  0
  -20.5586  -43.6210   -9.6044 O   0  0  0  0  0  0  0  0  0  0  0  0
  -18.9625  -43.5172   -7.9602 N   0  0  0  0  0  0  0  0  0  0  0  0
  -17.8516  -43.6476   -8.8815 C   0  0  0  0  0  0  0  0  0  0  0  0
  -18.7067  -43.1478   -6.5875 C   0  0  1  0  0  0  0  0  0  0  0  0
  -18.3476  -44.4648   -5.8789 C   0  0  0  0  0  0  0  0  0  0  0  0
  -17.6201  -42.1516   -6.4208 C   0  0  0  0  0  0  0  0  0  0  0  0
  -17.1064  -42.1345   -5.2388 O   0  0  0  0  0  0  0  0  0  0  0  0
  -17.1062  -41.2584   -7.3691 N   0  0  0  0  0  0  0  0  0  0  0  0
  -14.1068  -39.9761  -12.1569 N   0  0  0  0  0  0  0  0  0  0  0  0
  -13.9871  -38.9766  -12.9985 N   0  0  0  0  0  0  0  0  0  0  0  0
  1  2  1  0
  2  3  1  0
  3  4  1  0
  4  5  2  0
  5  6  1  0
  6  7  1  0
  7  8  1  0
  8  9  1  0
  9 10  1  0
 10 11  1  6
 10 12  1  0
 12 13  1  1
 13 14  1  0
 14 15  1  1
 14 16  1  0
 16 17  1  0
 17 18  1  0
 18 19  1  0
 19 20  1  0
 20 21  1  0
 21 22  1  0
 22 23  1  0
 23 24  1  0
 24 25  2  0
 24 26  1  0
 26 27  1  0
 26 28  1  0
 28 29  1  1
 28 30  1  0
 30 31  2  0
 30 32  1  0
  6 33  2  0
 33 34  1  0
 32 12  1  0
 34  4  1  0
M  END
$$$$
