
     RDKit          3D

 34 35  0  0  0  0  0  0  0  0999 V2000
  -11.8593  -35.6547  -12.2874 C   0  0  0  0  0  0  0  0  0  0  0  0
  -12.4438  -36.2432  -13.5283 C   0  0  0  0  0  0  0  0  0  0  0  0
  -13.7321  -36.9807  -13.3030 C   0  0  0  0  0  0  0  0  0  0  0  0
  -13.4012  -38.3375  -12.7698 C   0  0  0  0  0  0  0  0  0  0  0  0
  -13.9974  -38.9685  -11.6992 C   0  0  0  0  0  0  0  0  0  0  0  0
  -13.3906  -40.1828  -11.5615 C   0  0  0  0  0  0  0  0  0  0  0  0
  -13.6654  -41.2578  -10.5496 C   0  0  0  0  0  0  0  0  0  0  0  0
  -14.6462  -40.7726   -9.5979 N   0  0  0  0  0  0  0  0  0  0  0  0
  -15.9372  -40.6538  -10.2014 C   0  0  0  0  0  0  0  0  0  0  0  0
  -16.9028  -39.8892   -9.3832 C   0  0  1  0  0  0  0  0  0  0  0  0
  -17.3872  -38.7881  -10.0898 O   0  0  0  0  0  0  0  0  0  0  0  0
  -17.9622  -40.6541   -8.6743 C   0  0  2  0  0  0  0  0  0  0  0  0
  -19.1864  -39.9606   -8.2531 C   0  0  0  0  0  0  0  0  0  0  0  0
  -19.1332  -38.6179   -7.6620 C   0  0  2  0  0  0  0  0  0  0  0  0
  -18.6099  -38.5137   -6.2526 C   0  0  0  0  0  0  0  0  0  0  0  0
  -20.6122  -38.1696   -7.5500 C   0  0  0  0  0  0  0  0  0  0  0  0
  -21.4290  -39.2715   -6.9111 C   0  0  0  0  0  0  0  0  0  0  0  0
  -22.6993  -38.7477   -6.2791 C   0  0  0  0  0  0  0  0  0  0  0  0
  -23.0248  -39.6517   -5.0887 C   0  0  0  0  0  0  0  0  0  0  0  0
  -24.1335  -40.6092   -5.3740 C   0  0  0  0  0  0  0  0  0  0  0  0
  -23.6738  -42.0432   -5.5489 C   0  0  0  0  0  0  0  0  0  0  0  0
  -22.7668  -42.2194   -6.5607 O   0  0  0  0  0  0  0  0  0  0  0  0
  -21.9482  -43.3284   -6.3636 C   0  0  0  0  0  0  0  0  0  0  0  0
  -20.9700  -43.4648   -7.4594 C   0  0  0  0  0  0  0  0  0  0  0  0
  -21.4206  -43.6587   -8.6182 O   0  0  0  0  0  0  0  0  0  0  0  0
  -19.5711  -43.3916   -7.2880 N   0  0  0  0  0  0  0  0  0  0  0  0
  -18.6670  -44.0098   -8.2369 C   0  0  0  0  0  0  0  0  0  0  0  0
  -19.0312  -42.6893   -6.1472 C   0  0  1  0  0  0  0  0  0  0  0  0
  -18.7641  -43.7795   -5.0958 C   0  0  0  0  0  0  0  0  0  0  0  0
  -17.7916  -41.9271   -6.4362 C   0  0  0  0  0  0  0  0  0  0  0  0
  -17.0877  -41.6620   -5.3896 O   0  0  0  0  0  0  0  0  0  0  0  0
  -17.3154  -41.4784   -7.6744 N   0  0  0  0  0  0  0  0  0  0  0  0
  -12.4583  -40.2600  -12.5324 N   0  0  0  0  0  0  0  0  0  0  0  0
  -12.4563  -39.1664  -13.2575 N   0  0  0  0  0  0  0  0  0  0  0  0
  1  2  1  0
  2  3  1  0
  3  4  1  0
  4  5  2  0
  5  6  1  0
  6  7  1  0
  7  8  1  0
  8  9  1  0
  9 10  1  0
 10 11  1  6
 10 12  1  0
 12 13  1  1
 13 14  1  0
 14 15  1  1
 14 16  1  0
 16 17  1  0
 17 18  1  0
 18 19  1  0
 19 20  1  0
 20 21  1  0
 21 22  1  0
 22 23  1  0
 23 24  1  0
 24 25  2  0
 24 26  1  0
 26 27  1  0
 26 28  1  0
 28 29  1  1
 28 30  1  0
 30 31  2  0
 30 32  1  0
  6 33  2  0
 33 34  1  0
 32 12  1  0
 34  4  1  0
M  END
$$$$
