
     RDKit          3D

 34 35  0  0  0  0  0  0  0  0999 V2000
  -20.1341  -42.7365   -1.5387 C   0  0  0  0  0  0  0  0  0  0  0  0
  -20.4584  -41.8239   -2.6744 C   0  0  0  0  0  0  0  0  0  0  0  0
  -21.1869  -42.4937   -3.8036 C   0  0  0  0  0  0  0  0  0  0  0  0
  -21.4581  -41.4650   -4.8538 C   0  0  0  0  0  0  0  0  0  0  0  0
  -20.5452  -40.5919   -5.4053 C   0  0  0  0  0  0  0  0  0  0  0  0
  -21.2178  -39.8336   -6.3189 C   0  0  0  0  0  0  0  0  0  0  0  0
  -20.6888  -38.7356   -7.1960 C   0  0  0  0  0  0  0  0  0  0  0  0
  -19.2747  -38.5560   -6.9286 N   0  0  0  0  0  0  0  0  0  0  0  0
  -18.4747  -39.1954   -7.9265 C   0  0  0  0  0  0  0  0  0  0  0  0
  -17.0357  -38.8704   -7.8266 C   0  0  1  0  0  0  0  0  0  0  0  0
  -16.5515  -39.1563   -6.5498 O   0  0  0  0  0  0  0  0  0  0  0  0
  -16.1456  -39.3423   -8.9197 C   0  0  2  0  0  0  0  0  0  0  0  0
  -15.1534  -38.4187   -9.4849 C   0  0  0  0  0  0  0  0  0  0  0  0
  -15.4905  -37.0161   -9.7571 C   0  0  2  0  0  0  0  0  0  0  0  0
  -16.3877  -36.7473  -10.9377 C   0  0  0  0  0  0  0  0  0  0  0  0
  -14.1469  -36.3481  -10.1439 C   0  0  0  0  0  0  0  0  0  0  0  0
  -13.4388  -37.1953  -11.1784 C   0  0  0  0  0  0  0  0  0  0  0  0
  -12.4446  -36.3941  -11.9893 C   0  0  0  0  0  0  0  0  0  0  0  0
  -12.3763  -37.0240  -13.3817 C   0  0  0  0  0  0  0  0  0  0  0  0
  -11.1485  -37.8475  -13.5858 C   0  0  0  0  0  0  0  0  0  0  0  0
  -11.4081  -39.3410  -13.5970 C   0  0  0  0  0  0  0  0  0  0  0  0
  -11.9823  -39.8166  -12.4473 O   0  0  0  0  0  0  0  0  0  0  0  0
  -12.7176  -40.9809  -12.6538 C   0  0  0  0  0  0  0  0  0  0  0  0
  -13.3407  -41.4422  -11.3988 C   0  0  0  0  0  0  0  0  0  0  0  0
  -12.5734  -41.7658  -10.4553 O   0  0  0  0  0  0  0  0  0  0  0  0
  -14.7334  -41.5418  -11.1941 N   0  0  0  0  0  0  0  0  0  0  0  0
  -15.2813  -42.4370  -10.1948 C   0  0  0  0  0  0  0  0  0  0  0  0
  -15.6281  -40.7385  -11.9944 C   0  0  1  0  0  0  0  0  0  0  0  0
  -16.0717  -41.6587  -13.1442 C   0  0  0  0  0  0  0  0  0  0  0  0
  -16.8056  -40.2229  -11.2538 C   0  0  0  0  0  0  0  0  0  0  0  0
  -17.7911  -39.8855  -12.0128 O   0  0  0  0  0  0  0  0  0  0  0  0
  -16.9630  -40.0666   -9.8710 N   0  0  0  0  0  0  0  0  0  0  0  0
  -22.4984  -40.2554   -6.3016 N   0  0  0  0  0  0  0  0  0  0  0  0
  -22.6522  -41.2265   -5.4327 N   0  0  0  0  0  0  0  0  0  0  0  0
  1  2  1  0
  2  3  1  0
  3  4  1  0
  4  5  2  0
  5  6  1  0
  6  7  1  0
  7  8  1  0
  8  9  1  0
  9 10  1  0
 10 11  1  1
 10 12  1  0
 12 13  1  6
 13 14  1  0
 14 15  1  6
 14 16  1  0
 16 17  1  0
 17 18  1  0
 18 19  1  0
 19 20  1  0
 20 21  1  0
 21 22  1  0
 22 23  1  0
 23 24  1  0
 24 25  2  0
 24 26  1  0
 26 27  1  0
 26 28  1  0
 28 29  1  6
 28 30  1  0
 30 31  2  0
 30 32  1  0
  6 33  2  0
 33 34  1  0
 32 12  1  0
 34  4  1  0
M  END
$$$$
