
     RDKit          3D

 34 35  0  0  0  0  0  0  0  0999 V2000
  -12.9401  -35.9283  -15.4116 C   0  0  0  0  0  0  0  0  0  0  0  0
  -12.8326  -36.3031  -13.9709 C   0  0  0  0  0  0  0  0  0  0  0  0
  -12.6313  -37.7726  -13.7383 C   0  0  0  0  0  0  0  0  0  0  0  0
  -12.5824  -38.0049  -12.2624 C   0  0  0  0  0  0  0  0  0  0  0  0
  -13.6203  -37.8447  -11.3696 C   0  0  0  0  0  0  0  0  0  0  0  0
  -13.1377  -38.1628  -10.1335 C   0  0  0  0  0  0  0  0  0  0  0  0
  -13.8584  -38.1544   -8.8161 C   0  0  0  0  0  0  0  0  0  0  0  0
  -14.1626  -39.5201   -8.4343 N   0  0  0  0  0  0  0  0  0  0  0  0
  -15.3245  -40.0006   -9.1153 C   0  0  0  0  0  0  0  0  0  0  0  0
  -16.5919  -39.4806   -8.5589 C   0  0  1  0  0  0  0  0  0  0  0  0
  -17.0193  -38.3575   -9.2675 O   0  0  0  0  0  0  0  0  0  0  0  0
  -17.6767  -40.4594   -8.2850 C   0  0  2  0  0  0  0  0  0  0  0  0
  -19.0466  -39.9718   -8.0786 C   0  0  0  0  0  0  0  0  0  0  0  0
  -19.3125  -38.7732   -7.2738 C   0  0  2  0  0  0  0  0  0  0  0  0
  -19.1531  -38.9051   -5.7810 C   0  0  0  0  0  0  0  0  0  0  0  0
  -20.8226  -38.4857   -7.4685 C   0  0  0  0  0  0  0  0  0  0  0  0
  -21.6124  -39.7588   -7.2567 C   0  0  0  0  0  0  0  0  0  0  0  0
  -23.0537  -39.4825   -6.8903 C   0  0  0  0  0  0  0  0  0  0  0  0
  -23.5261  -40.6289   -5.9944 C   0  0  0  0  0  0  0  0  0  0  0  0
  -24.3995  -41.6034   -6.7122 C   0  0  0  0  0  0  0  0  0  0  0  0
  -23.7252  -42.9291   -7.0054 C   0  0  0  0  0  0  0  0  0  0  0  0
  -22.5910  -42.8223   -7.7668 O   0  0  0  0  0  0  0  0  0  0  0  0
  -21.7015  -43.8732   -7.5591 C   0  0  0  0  0  0  0  0  0  0  0  0
  -20.4843  -43.7048   -8.3754 C   0  0  0  0  0  0  0  0  0  0  0  0
  -20.6206  -43.7038   -9.6263 O   0  0  0  0  0  0  0  0  0  0  0  0
  -19.1871  -43.5461   -7.8426 N   0  0  0  0  0  0  0  0  0  0  0  0
  -18.0118  -43.8836   -8.6201 C   0  0  0  0  0  0  0  0  0  0  0  0
  -19.0282  -43.0394   -6.4993 C   0  0  1  0  0  0  0  0  0  0  0  0
  -18.8727  -44.2889   -5.6161 C   0  0  0  0  0  0  0  0  0  0  0  0
  -17.8682  -42.1307   -6.3281 C   0  0  0  0  0  0  0  0  0  0  0  0
  -17.4710  -42.0180   -5.1071 O   0  0  0  0  0  0  0  0  0  0  0  0
  -17.1788  -41.4063   -7.3085 N   0  0  0  0  0  0  0  0  0  0  0  0
  -11.8436  -38.5023  -10.3007 N   0  0  0  0  0  0  0  0  0  0  0  0
  -11.5028  -38.4116  -11.5645 N   0  0  0  0  0  0  0  0  0  0  0  0
  1  2  1  0
  2  3  1  0
  3  4  1  0
  4  5  2  0
  5  6  1  0
  6  7  1  0
  7  8  1  0
  8  9  1  0
  9 10  1  0
 10 11  1  6
 10 12  1  0
 12 13  1  1
 13 14  1  0
 14 15  1  1
 14 16  1  0
 16 17  1  0
 17 18  1  0
 18 19  1  0
 19 20  1  0
 20 21  1  0
 21 22  1  0
 22 23  1  0
 23 24  1  0
 24 25  2  0
 24 26  1  0
 26 27  1  0
 26 28  1  0
 28 29  1  1
 28 30  1  0
 30 31  2  0
 30 32  1  0
  6 33  2  0
 33 34  1  0
 32 12  1  0
 34  4  1  0
M  END
$$$$
