
     RDKit          3D

 34 35  0  0  0  0  0  0  0  0999 V2000
  -15.5636  -33.5136  -12.1154 C   0  0  0  0  0  0  0  0  0  0  0  0
  -15.2287  -34.9296  -11.7829 C   0  0  0  0  0  0  0  0  0  0  0  0
  -13.7565  -35.2240  -11.7897 C   0  0  0  0  0  0  0  0  0  0  0  0
  -13.5741  -36.6777  -11.4929 C   0  0  0  0  0  0  0  0  0  0  0  0
  -13.7784  -37.3018  -10.2810 C   0  0  0  0  0  0  0  0  0  0  0  0
  -13.4948  -38.6246  -10.4591 C   0  0  0  0  0  0  0  0  0  0  0  0
  -13.5570  -39.7393   -9.4549 C   0  0  0  0  0  0  0  0  0  0  0  0
  -14.1862  -39.2503   -8.2431 N   0  0  0  0  0  0  0  0  0  0  0  0
  -15.5888  -39.5285   -8.2404 C   0  0  0  0  0  0  0  0  0  0  0  0
  -15.9085  -40.9515   -8.4839 C   0  0  1  0  0  0  0  0  0  0  0  0
  -14.9880  -41.7819   -7.8441 O   0  0  0  0  0  0  0  0  0  0  0  0
  -17.3207  -41.3803   -8.3056 C   0  0  2  0  0  0  0  0  0  0  0  0
  -18.3905  -40.6111   -8.9545 C   0  0  0  0  0  0  0  0  0  0  0  0
  -18.3677  -39.1434   -8.9704 C   0  0  2  0  0  0  0  0  0  0  0  0
  -18.6751  -38.4426   -7.6722 C   0  0  0  0  0  0  0  0  0  0  0  0
  -19.5331  -38.7340   -9.9059 C   0  0  0  0  0  0  0  0  0  0  0  0
  -20.7846  -39.4907   -9.5177 C   0  0  0  0  0  0  0  0  0  0  0  0
  -22.0425  -38.7885   -9.9784 C   0  0  0  0  0  0  0  0  0  0  0  0
  -23.1463  -39.1198   -8.9723 C   0  0  0  0  0  0  0  0  0  0  0  0
  -24.1075  -40.1416   -9.4818 C   0  0  0  0  0  0  0  0  0  0  0  0
  -23.9562  -41.5024   -8.8311 C   0  0  0  0  0  0  0  0  0  0  0  0
  -22.7135  -42.0591   -8.9834 O   0  0  0  0  0  0  0  0  0  0  0  0
  -22.3976  -42.9584   -7.9683 C   0  0  0  0  0  0  0  0  0  0  0  0
  -21.0431  -43.5120   -8.1551 C   0  0  0  0  0  0  0  0  0  0  0  0
  -20.8309  -44.1870   -9.1956 O   0  0  0  0  0  0  0  0  0  0  0  0
  -19.9798  -43.3319   -7.2448 N   0  0  0  0  0  0  0  0  0  0  0  0
  -18.8709  -44.2635   -7.1948 C   0  0  0  0  0  0  0  0  0  0  0  0
  -19.9973  -42.2003   -6.3473 C   0  0  1  0  0  0  0  0  0  0  0  0
  -20.5850  -42.7411   -5.0329 C   0  0  0  0  0  0  0  0  0  0  0  0
  -18.6644  -41.5926   -6.1127 C   0  0  0  0  0  0  0  0  0  0  0  0
  -18.5943  -40.8924   -5.0329 O   0  0  0  0  0  0  0  0  0  0  0  0
  -17.5129  -41.6900   -6.9038 N   0  0  0  0  0  0  0  0  0  0  0  0
  -13.1320  -38.7706  -11.7495 N   0  0  0  0  0  0  0  0  0  0  0  0
  -13.1758  -37.6174  -12.3739 N   0  0  0  0  0  0  0  0  0  0  0  0
  1  2  1  0
  2  3  1  0
  3  4  1  0
  4  5  2  0
  5  6  1  0
  6  7  1  0
  7  8  1  0
  8  9  1  0
  9 10  1  0
 10 11  1  1
 10 12  1  0
 12 13  1  1
 13 14  1  0
 14 15  1  1
 14 16  1  0
 16 17  1  0
 17 18  1  0
 18 19  1  0
 19 20  1  0
 20 21  1  0
 21 22  1  0
 22 23  1  0
 23 24  1  0
 24 25  2  0
 24 26  1  0
 26 27  1  0
 26 28  1  0
 28 29  1  1
 28 30  1  0
 30 31  2  0
 30 32  1  0
  6 33  2  0
 33 34  1  0
 32 12  1  0
 34  4  1  0
M  END
$$$$
