
     RDKit          3D

 34 35  0  0  0  0  0  0  0  0999 V2000
  -14.2740  -35.2903  -14.2883 C   0  0  0  0  0  0  0  0  0  0  0  0
  -13.0966  -36.1584  -13.9918 C   0  0  0  0  0  0  0  0  0  0  0  0
  -13.2467  -37.5723  -14.4743 C   0  0  0  0  0  0  0  0  0  0  0  0
  -13.4497  -38.4491  -13.2807 C   0  0  0  0  0  0  0  0  0  0  0  0
  -13.0420  -38.1890  -11.9900 C   0  0  0  0  0  0  0  0  0  0  0  0
  -13.4307  -39.2506  -11.2258 C   0  0  0  0  0  0  0  0  0  0  0  0
  -13.2317  -39.4673   -9.7532 C   0  0  0  0  0  0  0  0  0  0  0  0
  -14.4135  -39.0157   -9.0443 N   0  0  0  0  0  0  0  0  0  0  0  0
  -15.4306  -40.0208   -9.0421 C   0  0  0  0  0  0  0  0  0  0  0  0
  -16.7390  -39.5352   -8.5535 C   0  0  1  0  0  0  0  0  0  0  0  0
  -17.2395  -38.5366   -9.3893 O   0  0  0  0  0  0  0  0  0  0  0  0
  -17.7521  -40.5534   -8.1705 C   0  0  2  0  0  0  0  0  0  0  0  0
  -19.1711  -40.1760   -8.1394 C   0  0  0  0  0  0  0  0  0  0  0  0
  -19.6016  -38.8866   -7.5851 C   0  0  2  0  0  0  0  0  0  0  0  0
  -19.5467  -38.7362   -6.0866 C   0  0  0  0  0  0  0  0  0  0  0  0
  -21.1116  -38.7900   -7.9194 C   0  0  0  0  0  0  0  0  0  0  0  0
  -21.8014  -40.0779   -7.5257 C   0  0  0  0  0  0  0  0  0  0  0  0
  -23.2851  -39.8863   -7.3032 C   0  0  0  0  0  0  0  0  0  0  0  0
  -23.7233  -40.8977   -6.2425 C   0  0  0  0  0  0  0  0  0  0  0  0
  -24.4505  -42.0658   -6.8207 C   0  0  0  0  0  0  0  0  0  0  0  0
  -23.6426  -43.3485   -6.8252 C   0  0  0  0  0  0  0  0  0  0  0  0
  -22.4669  -43.2654   -7.5240 O   0  0  0  0  0  0  0  0  0  0  0  0
  -21.5077  -44.1691   -7.0743 C   0  0  0  0  0  0  0  0  0  0  0  0
  -20.2507  -44.0271   -7.8333 C   0  0  0  0  0  0  0  0  0  0  0  0
  -20.2899  -44.2606   -9.0691 O   0  0  0  0  0  0  0  0  0  0  0  0
  -19.0172  -43.6483   -7.2617 N   0  0  0  0  0  0  0  0  0  0  0  0
  -17.7605  -43.9990   -7.8925 C   0  0  0  0  0  0  0  0  0  0  0  0
  -19.0069  -42.8990   -6.0269 C   0  0  1  0  0  0  0  0  0  0  0  0
  -18.8114  -43.9510   -4.9222 C   0  0  0  0  0  0  0  0  0  0  0  0
  -17.9471  -41.8633   -5.9558 C   0  0  0  0  0  0  0  0  0  0  0  0
  -17.6564  -41.4977   -4.7545 O   0  0  0  0  0  0  0  0  0  0  0  0
  -17.2501  -41.2585   -7.0091 N   0  0  0  0  0  0  0  0  0  0  0  0
  -14.0532  -40.1138  -12.0535 N   0  0  0  0  0  0  0  0  0  0  0  0
  -14.0700  -39.6462  -13.2794 N   0  0  0  0  0  0  0  0  0  0  0  0
  1  2  1  0
  2  3  1  0
  3  4  1  0
  4  5  2  0
  5  6  1  0
  6  7  1  0
  7  8  1  0
  8  9  1  0
  9 10  1  0
 10 11  1  6
 10 12  1  0
 12 13  1  1
 13 14  1  0
 14 15  1  1
 14 16  1  0
 16 17  1  0
 17 18  1  0
 18 19  1  0
 19 20  1  0
 20 21  1  0
 21 22  1  0
 22 23  1  0
 23 24  1  0
 24 25  2  0
 24 26  1  0
 26 27  1  0
 26 28  1  0
 28 29  1  1
 28 30  1  0
 30 31  2  0
 30 32  1  0
  6 33  2  0
 33 34  1  0
 32 12  1  0
 34  4  1  0
M  END
$$$$
