
     RDKit          3D

 34 35  0  0  0  0  0  0  0  0999 V2000
  -10.7938  -42.2974  -14.2759 C   0  0  0  0  0  0  0  0  0  0  0  0
  -11.5582  -41.0616  -13.9347 C   0  0  0  0  0  0  0  0  0  0  0  0
  -12.0651  -41.0309  -12.5218 C   0  0  0  0  0  0  0  0  0  0  0  0
  -12.8719  -39.7846  -12.3469 C   0  0  0  0  0  0  0  0  0  0  0  0
  -13.4496  -39.3358  -11.1786 C   0  0  0  0  0  0  0  0  0  0  0  0
  -14.0888  -38.1664  -11.4716 C   0  0  0  0  0  0  0  0  0  0  0  0
  -14.8734  -37.2727  -10.5548 C   0  0  0  0  0  0  0  0  0  0  0  0
  -14.6956  -37.7234   -9.1879 N   0  0  0  0  0  0  0  0  0  0  0  0
  -15.5127  -38.8633   -8.9089 C   0  0  0  0  0  0  0  0  0  0  0  0
  -16.9606  -38.5634   -8.9005 C   0  0  1  0  0  0  0  0  0  0  0  0
  -17.3062  -37.7620   -9.9888 O   0  0  0  0  0  0  0  0  0  0  0  0
  -17.8970  -39.6957   -8.6744 C   0  0  2  0  0  0  0  0  0  0  0  0
  -19.2329  -39.4227   -8.1286 C   0  0  0  0  0  0  0  0  0  0  0  0
  -19.4248  -38.4594   -7.0376 C   0  0  2  0  0  0  0  0  0  0  0  0
  -18.9698  -38.8842   -5.6652 C   0  0  0  0  0  0  0  0  0  0  0  0
  -20.9610  -38.3123   -6.8977 C   0  0  0  0  0  0  0  0  0  0  0  0
  -21.5993  -39.6833   -6.8493 C   0  0  0  0  0  0  0  0  0  0  0  0
  -22.9585  -39.6574   -6.1862 C   0  0  0  0  0  0  0  0  0  0  0  0
  -23.1630  -41.0134   -5.5083 C   0  0  0  0  0  0  0  0  0  0  0  0
  -24.0851  -41.9080   -6.2679 C   0  0  0  0  0  0  0  0  0  0  0  0
  -23.3851  -43.0558   -6.9683 C   0  0  0  0  0  0  0  0  0  0  0  0
  -22.4310  -42.6616   -7.8693 O   0  0  0  0  0  0  0  0  0  0  0  0
  -21.4435  -43.6238   -8.0642 C   0  0  0  0  0  0  0  0  0  0  0  0
  -20.4233  -43.1486   -9.0180 C   0  0  0  0  0  0  0  0  0  0  0  0
  -20.7993  -42.8993  -10.1927 O   0  0  0  0  0  0  0  0  0  0  0  0
  -19.0627  -42.9584   -8.6953 N   0  0  0  0  0  0  0  0  0  0  0  0
  -18.0388  -42.9874   -9.7204 C   0  0  0  0  0  0  0  0  0  0  0  0
  -18.6840  -42.7317   -7.3200 C   0  0  1  0  0  0  0  0  0  0  0  0
  -18.2690  -44.1132   -6.7863 C   0  0  0  0  0  0  0  0  0  0  0  0
  -17.5825  -41.7528   -7.1485 C   0  0  0  0  0  0  0  0  0  0  0  0
  -16.9655  -41.8556   -6.0216 O   0  0  0  0  0  0  0  0  0  0  0  0
  -17.1512  -40.7638   -8.0413 N   0  0  0  0  0  0  0  0  0  0  0  0
  -13.8885  -37.9364  -12.7850 N   0  0  0  0  0  0  0  0  0  0  0  0
  -13.1652  -38.8939  -13.3156 N   0  0  0  0  0  0  0  0  0  0  0  0
  1  2  1  0
  2  3  1  0
  3  4  1  0
  4  5  2  0
  5  6  1  0
  6  7  1  0
  7  8  1  0
  8  9  1  0
  9 10  1  0
 10 11  1  6
 10 12  1  0
 12 13  1  1
 13 14  1  0
 14 15  1  1
 14 16  1  0
 16 17  1  0
 17 18  1  0
 18 19  1  0
 19 20  1  0
 20 21  1  0
 21 22  1  0
 22 23  1  0
 23 24  1  0
 24 25  2  0
 24 26  1  0
 26 27  1  0
 26 28  1  0
 28 29  1  6
 28 30  1  0
 30 31  2  0
 30 32  1  0
  6 33  2  0
 33 34  1  0
 32 12  1  0
 34  4  1  0
M  END
$$$$
