
     RDKit          3D

 42 46  0  0  0  0  0  0  0  0999 V2000
  -16.8705  -46.2621   -7.4125 C   0  0  0  0  0  0  0  0  0  0  0  0
  -15.8738  -45.9547   -8.3337 O   0  0  0  0  0  0  0  0  0  0  0  0
  -16.4024  -45.8421   -9.6367 C   0  0  0  0  0  0  0  0  0  0  0  0
  -16.0930  -44.4988  -10.1994 C   0  0  0  0  0  0  0  0  0  0  0  0
  -14.9759  -44.2442  -10.9317 C   0  0  0  0  0  0  0  0  0  0  0  0
  -14.6619  -42.9696  -11.4880 C   0  0  0  0  0  0  0  0  0  0  0  0
  -15.5265  -41.9124  -11.2864 C   0  0  0  0  0  0  0  0  0  0  0  0
  -16.6815  -42.1391  -10.5370 C   0  0  0  0  0  0  0  0  0  0  0  0
  -16.9355  -43.4267  -10.0132 C   0  0  0  0  0  0  0  0  0  0  0  0
  -17.7607  -41.2197  -10.1289 C   0  0  0  0  0  0  0  0  0  0  0  0
  -18.9576  -41.7710  -10.2334 O   0  0  0  0  0  0  0  0  0  0  0  0
  -17.7759  -39.9519   -9.6773 O   0  0  0  0  0  0  0  0  0  0  0  0
  -17.2611  -39.1262   -8.7588 C   0  0  1  0  0  0  0  0  0  0  0  0
  -17.3369  -39.5815   -7.2994 C   0  0  0  0  0  0  0  0  0  0  0  0
  -18.6540  -39.9600   -6.9208 N   0  0  0  0  0  0  0  0  0  0  0  0
  -19.6482  -39.2219   -7.6740 C   0  0  0  0  0  0  0  0  0  0  0  0
  -19.3381  -37.7558   -7.8372 C   0  0  0  0  0  0  0  0  0  0  0  0
  -19.3488  -38.6785   -9.0227 C   0  0  0  0  0  0  0  0  0  0  0  0
  -21.0692  -39.6098   -7.4800 C   0  0  0  0  0  0  0  0  0  0  0  0
  -21.4257  -40.7782   -6.8555 C   0  0  0  0  0  0  0  0  0  0  0  0
  -22.7449  -41.1577   -6.6620 C   0  0  0  0  0  0  0  0  0  0  0  0
  -23.7379  -40.3309   -7.1150 C   0  0  0  0  0  0  0  0  0  0  0  0
  -23.4143  -39.1428   -7.7506 C   0  0  0  0  0  0  0  0  0  0  0  0
  -22.0993  -38.8007   -7.9231 C   0  0  0  0  0  0  0  0  0  0  0  0
  -23.0569  -42.4268   -5.9846 C   0  0  0  0  0  0  0  0  0  0  0  0
  -23.2304  -42.2546   -4.4900 C   0  0  0  0  0  0  0  0  0  0  0  0
  -24.2806  -43.0973   -6.5168 C   0  0  0  0  0  0  0  0  0  0  0  0
  -15.8944  -38.5557   -8.9317 C   0  0  1  0  0  0  0  0  0  0  0  0
  -14.9311  -39.6184   -9.0788 N   0  0  0  0  0  0  0  0  0  0  0  0
  -15.8496  -37.7028  -10.1680 C   0  0  0  0  0  0  0  0  0  0  0  0
  -14.4519  -37.4903  -10.6376 C   0  0  0  0  0  0  0  0  0  0  0  0
  -13.6902  -38.1526  -11.5440 C   0  0  0  0  0  0  0  0  0  0  0  0
  -12.3820  -37.7414  -11.7530 C   0  0  0  0  0  0  0  0  0  0  0  0
  -11.8741  -36.6575  -11.0337 C   0  0  0  0  0  0  0  0  0  0  0  0
  -12.6076  -35.9496  -10.1010 C   0  0  0  0  0  0  0  0  0  0  0  0
  -13.8862  -36.3996   -9.9356 C   0  0  0  0  0  0  0  0  0  0  0  0
  -11.4423  -38.2736  -12.6186 O   0  0  0  0  0  0  0  0  0  0  0  0
  -10.8036  -39.4727  -12.8180 C   0  0  0  0  0  0  0  0  0  0  0  0
  -11.6318  -40.4019  -13.6560 C   0  0  0  0  0  0  0  0  0  0  0  0
  -11.5508  -41.8335  -13.1936 C   0  0  0  0  0  0  0  0  0  0  0  0
  -12.8951  -42.4674  -13.3799 C   0  0  0  0  0  0  0  0  0  0  0  0
  -13.4050  -43.0581  -12.1577 N   0  0  0  0  0  0  0  0  0  0  0  0
  1  2  1  0
  2  3  1  0
  3  4  1  0
  4  5  2  0
  5  6  1  0
  6  7  2  0
  7  8  1  0
  8  9  2  0
  8 10  1  0
 10 11  2  0
 10 12  1  0
 12 13  1  0
 13 14  1  1
 14 15  1  0
 15 16  1  0
 16 17  1  0
 17 18  1  0
 16 19  1  0
 19 20  2  0
 20 21  1  0
 21 22  2  0
 22 23  1  0
 23 24  2  0
 21 25  1  0
 25 26  1  0
 25 27  1  0
 13 28  1  0
 28 29  1  6
 28 30  1  0
 30 31  1  0
 31 32  1  0
 32 33  2  0
 33 34  1  0
 34 35  2  0
 35 36  1  0
 33 37  1  0
 37 38  1  0
 38 39  1  0
 39 40  1  0
 40 41  1  0
 41 42  1  0
  9  4  1  0
 18 16  1  0
 24 19  1  0
 36 31  2  0
 42  6  1  0
M  END
$$$$
