
     RDKit          3D

 42 46  0  0  0  0  0  0  0  0999 V2000
  -12.1154  -45.8595  -10.6881 C   0  0  0  0  0  0  0  0  0  0  0  0
  -11.5551  -44.6473  -11.0796 O   0  0  0  0  0  0  0  0  0  0  0  0
  -11.6880  -43.6746  -10.0665 C   0  0  0  0  0  0  0  0  0  0  0  0
  -12.4793  -42.5180  -10.5692 C   0  0  0  0  0  0  0  0  0  0  0  0
  -11.9156  -41.4617  -11.2137 C   0  0  0  0  0  0  0  0  0  0  0  0
  -12.6524  -40.3473  -11.7117 C   0  0  0  0  0  0  0  0  0  0  0  0
  -14.0222  -40.3128  -11.5430 C   0  0  0  0  0  0  0  0  0  0  0  0
  -14.6323  -41.3802  -10.8833 C   0  0  0  0  0  0  0  0  0  0  0  0
  -13.8453  -42.4560  -10.4139 C   0  0  0  0  0  0  0  0  0  0  0  0
  -16.0452  -41.6118  -10.5276 C   0  0  0  0  0  0  0  0  0  0  0  0
  -16.4166  -42.8641  -10.7313 O   0  0  0  0  0  0  0  0  0  0  0  0
  -17.0203  -40.8200  -10.0440 O   0  0  0  0  0  0  0  0  0  0  0  0
  -17.3259  -39.9557   -9.0693 C   0  0  1  0  0  0  0  0  0  0  0  0
  -17.0716  -40.4159   -7.6318 C   0  0  0  0  0  0  0  0  0  0  0  0
  -18.0806  -41.3013   -7.1632 N   0  0  0  0  0  0  0  0  0  0  0  0
  -18.8920  -41.7970   -8.2570 C   0  0  0  0  0  0  0  0  0  0  0  0
  -18.0996  -42.3051   -9.4343 C   0  0  0  0  0  0  0  0  0  0  0  0
  -18.9270  -43.2410   -8.5998 C   0  0  0  0  0  0  0  0  0  0  0  0
  -20.1613  -41.0777   -8.5376 C   0  0  0  0  0  0  0  0  0  0  0  0
  -20.6207  -40.0698   -7.7281 C   0  0  0  0  0  0  0  0  0  0  0  0
  -21.8005  -39.3843   -7.9731 C   0  0  0  0  0  0  0  0  0  0  0  0
  -22.5424  -39.7284   -9.0713 C   0  0  0  0  0  0  0  0  0  0  0  0
  -22.1087  -40.7419   -9.9108 C   0  0  0  0  0  0  0  0  0  0  0  0
  -20.9370  -41.3964   -9.6371 C   0  0  0  0  0  0  0  0  0  0  0  0
  -22.2356  -38.3133   -7.0619 C   0  0  0  0  0  0  0  0  0  0  0  0
  -23.7416  -38.1552   -7.0362 C   0  0  0  0  0  0  0  0  0  0  0  0
  -21.7679  -38.5044   -5.6565 C   0  0  0  0  0  0  0  0  0  0  0  0
  -16.8498  -38.5440   -9.1298 C   0  0  1  0  0  0  0  0  0  0  0  0
  -15.4124  -38.5121   -9.2374 N   0  0  0  0  0  0  0  0  0  0  0  0
  -17.4292  -37.8608  -10.3363 C   0  0  0  0  0  0  0  0  0  0  0  0
  -16.6558  -36.6406  -10.7001 C   0  0  0  0  0  0  0  0  0  0  0  0
  -15.6324  -36.4421  -11.5682 C   0  0  0  0  0  0  0  0  0  0  0  0
  -15.0742  -35.1767  -11.6730 C   0  0  0  0  0  0  0  0  0  0  0  0
  -15.5732  -34.1332  -10.8905 C   0  0  0  0  0  0  0  0  0  0  0  0
  -16.6131  -34.2824   -9.9930 C   0  0  0  0  0  0  0  0  0  0  0  0
  -17.1216  -35.5482   -9.9305 C   0  0  0  0  0  0  0  0  0  0  0  0
  -14.0323  -34.7620  -12.4843 O   0  0  0  0  0  0  0  0  0  0  0  0
  -12.7048  -35.0595  -12.6706 C   0  0  0  0  0  0  0  0  0  0  0  0
  -12.5299  -36.2325  -13.5899 C   0  0  0  0  0  0  0  0  0  0  0  0
  -11.4123  -37.1477  -13.1620 C   0  0  0  0  0  0  0  0  0  0  0  0
  -11.8165  -38.5590  -13.4599 C   0  0  0  0  0  0  0  0  0  0  0  0
  -11.7403  -39.4167  -12.2932 N   0  0  0  0  0  0  0  0  0  0  0  0
  1  2  1  0
  2  3  1  0
  3  4  1  0
  4  5  2  0
  5  6  1  0
  6  7  2  0
  7  8  1  0
  8  9  2  0
  8 10  1  0
 10 11  2  0
 10 12  1  0
 12 13  1  0
 13 14  1  1
 14 15  1  0
 15 16  1  0
 16 17  1  0
 17 18  1  0
 16 19  1  0
 19 20  2  0
 20 21  1  0
 21 22  2  0
 22 23  1  0
 23 24  2  0
 21 25  1  0
 25 26  1  0
 25 27  1  0
 13 28  1  0
 28 29  1  6
 28 30  1  0
 30 31  1  0
 31 32  1  0
 32 33  2  0
 33 34  1  0
 34 35  2  0
 35 36  1  0
 33 37  1  0
 37 38  1  0
 38 39  1  0
 39 40  1  0
 40 41  1  0
 41 42  1  0
  9  4  1  0
 18 16  1  0
 24 19  1  0
 36 31  2  0
 42  6  1  0
M  END
$$$$
