
     RDKit          3D

 42 46  0  0  0  0  0  0  0  0999 V2000
  -10.7001  -44.8328  -10.8956 C   0  0  0  0  0  0  0  0  0  0  0  0
  -10.6064  -43.7811   -9.9891 O   0  0  0  0  0  0  0  0  0  0  0  0
  -11.8379  -43.5596   -9.3377 C   0  0  0  0  0  0  0  0  0  0  0  0
  -12.5674  -42.4384   -9.9915 C   0  0  0  0  0  0  0  0  0  0  0  0
  -11.9423  -41.4766  -10.7217 C   0  0  0  0  0  0  0  0  0  0  0  0
  -12.6191  -40.3987  -11.3640 C   0  0  0  0  0  0  0  0  0  0  0  0
  -13.9918  -40.3012  -11.2544 C   0  0  0  0  0  0  0  0  0  0  0  0
  -14.6643  -41.2709  -10.5098 C   0  0  0  0  0  0  0  0  0  0  0  0
  -13.9349  -42.3152   -9.8979 C   0  0  0  0  0  0  0  0  0  0  0  0
  -16.0966  -41.4162  -10.1878 C   0  0  0  0  0  0  0  0  0  0  0  0
  -16.5064  -42.6703  -10.2718 O   0  0  0  0  0  0  0  0  0  0  0  0
  -17.0585  -40.5454   -9.8300 O   0  0  0  0  0  0  0  0  0  0  0  0
  -17.3668  -39.5716   -8.9656 C   0  0  1  0  0  0  0  0  0  0  0  0
  -17.1815  -39.8827   -7.4785 C   0  0  0  0  0  0  0  0  0  0  0  0
  -18.1964  -40.7432   -6.9775 N   0  0  0  0  0  0  0  0  0  0  0  0
  -19.4810  -40.4433   -7.5778 C   0  0  0  0  0  0  0  0  0  0  0  0
  -19.5052  -39.1694   -8.3833 C   0  0  0  0  0  0  0  0  0  0  0  0
  -19.6799  -40.5055   -9.0476 C   0  0  0  0  0  0  0  0  0  0  0  0
  -20.6926  -40.7843   -6.7884 C   0  0  0  0  0  0  0  0  0  0  0  0
  -21.8123  -39.9918   -6.7951 C   0  0  0  0  0  0  0  0  0  0  0  0
  -22.9537  -40.2928   -6.0682 C   0  0  0  0  0  0  0  0  0  0  0  0
  -22.9651  -41.4315   -5.3078 C   0  0  0  0  0  0  0  0  0  0  0  0
  -21.8515  -42.2555   -5.2772 C   0  0  0  0  0  0  0  0  0  0  0  0
  -20.7418  -41.9258   -6.0095 C   0  0  0  0  0  0  0  0  0  0  0  0
  -24.1205  -39.3968   -6.1200 C   0  0  0  0  0  0  0  0  0  0  0  0
  -24.7891  -39.3996   -7.4789 C   0  0  0  0  0  0  0  0  0  0  0  0
  -25.1583  -39.7156   -5.0946 C   0  0  0  0  0  0  0  0  0  0  0  0
  -16.8370  -38.1911   -9.1569 C   0  0  1  0  0  0  0  0  0  0  0  0
  -15.3965  -38.2182   -9.2101 N   0  0  0  0  0  0  0  0  0  0  0  0
  -17.3471  -37.6229  -10.4511 C   0  0  0  0  0  0  0  0  0  0  0  0
  -16.5167  -36.4751  -10.9115 C   0  0  0  0  0  0  0  0  0  0  0  0
  -15.4560  -36.4049  -11.7545 C   0  0  0  0  0  0  0  0  0  0  0  0
  -14.8481  -35.1771  -11.9711 C   0  0  0  0  0  0  0  0  0  0  0  0
  -15.3360  -34.0397  -11.3243 C   0  0  0  0  0  0  0  0  0  0  0  0
  -16.4123  -34.0572  -10.4579 C   0  0  0  0  0  0  0  0  0  0  0  0
  -16.9690  -35.2915  -10.2815 C   0  0  0  0  0  0  0  0  0  0  0  0
  -13.7632  -34.8865  -12.7798 O   0  0  0  0  0  0  0  0  0  0  0  0
  -12.4417  -35.2458  -12.8807 C   0  0  0  0  0  0  0  0  0  0  0  0
  -12.2774  -36.5160  -13.6625 C   0  0  0  0  0  0  0  0  0  0  0  0
  -11.2104  -37.4162  -13.0958 C   0  0  0  0  0  0  0  0  0  0  0  0
  -11.6555  -38.8372  -13.2578 C   0  0  0  0  0  0  0  0  0  0  0  0
  -11.6529  -39.5666  -12.0045 N   0  0  0  0  0  0  0  0  0  0  0  0
  1  2  1  0
  2  3  1  0
  3  4  1  0
  4  5  2  0
  5  6  1  0
  6  7  2  0
  7  8  1  0
  8  9  2  0
  8 10  1  0
 10 11  2  0
 10 12  1  0
 12 13  1  0
 13 14  1  1
 14 15  1  0
 15 16  1  0
 16 17  1  0
 17 18  1  0
 16 19  1  0
 19 20  2  0
 20 21  1  0
 21 22  2  0
 22 23  1  0
 23 24  2  0
 21 25  1  0
 25 26  1  0
 25 27  1  0
 13 28  1  0
 28 29  1  6
 28 30  1  0
 30 31  1  0
 31 32  1  0
 32 33  2  0
 33 34  1  0
 34 35  2  0
 35 36  1  0
 33 37  1  0
 37 38  1  0
 38 39  1  0
 39 40  1  0
 40 41  1  0
 41 42  1  0
  9  4  1  0
 18 16  1  0
 24 19  1  0
 36 31  2  0
 42  6  1  0
M  END
$$$$
