
     RDKit          3D

 42 46  0  0  0  0  0  0  0  0999 V2000
  -10.9453  -36.0607  -11.8606 C   0  0  0  0  0  0  0  0  0  0  0  0
  -11.1765  -37.3853  -12.2190 O   0  0  0  0  0  0  0  0  0  0  0  0
  -12.5319  -37.5937  -12.5498 C   0  0  0  0  0  0  0  0  0  0  0  0
  -13.1210  -38.6327  -11.6610 C   0  0  0  0  0  0  0  0  0  0  0  0
  -12.6815  -39.9193  -11.6364 C   0  0  0  0  0  0  0  0  0  0  0  0
  -13.2230  -40.9297  -10.7888 C   0  0  0  0  0  0  0  0  0  0  0  0
  -14.2567  -40.6102   -9.9313 C   0  0  0  0  0  0  0  0  0  0  0  0
  -14.7333  -39.2987   -9.9331 C   0  0  0  0  0  0  0  0  0  0  0  0
  -14.1527  -38.3433  -10.7974 C   0  0  0  0  0  0  0  0  0  0  0  0
  -15.8283  -38.6709   -9.1695 C   0  0  0  0  0  0  0  0  0  0  0  0
  -15.5097  -37.4648   -8.7321 O   0  0  0  0  0  0  0  0  0  0  0  0
  -17.0691  -39.0689   -8.8322 O   0  0  0  0  0  0  0  0  0  0  0  0
  -18.2161  -39.5576   -9.3180 C   0  0  1  0  0  0  0  0  0  0  0  0
  -18.8436  -38.8078  -10.4957 C   0  0  0  0  0  0  0  0  0  0  0  0
  -18.3866  -37.4644  -10.5841 N   0  0  0  0  0  0  0  0  0  0  0  0
  -18.9518  -36.6481   -9.5282 C   0  0  0  0  0  0  0  0  0  0  0  0
  -17.9889  -35.6528   -8.9330 C   0  0  0  0  0  0  0  0  0  0  0  0
  -19.1856  -35.1944   -9.7171 C   0  0  0  0  0  0  0  0  0  0  0  0
  -19.9218  -37.3029   -8.6129 C   0  0  0  0  0  0  0  0  0  0  0  0
  -19.8035  -38.6203   -8.2489 C   0  0  0  0  0  0  0  0  0  0  0  0
  -20.6956  -39.2497   -7.3946 C   0  0  0  0  0  0  0  0  0  0  0  0
  -21.7431  -38.5255   -6.8915 C   0  0  0  0  0  0  0  0  0  0  0  0
  -21.8937  -37.1923   -7.2380 C   0  0  0  0  0  0  0  0  0  0  0  0
  -20.9916  -36.6041   -8.0844 C   0  0  0  0  0  0  0  0  0  0  0  0
  -20.5099  -40.6678   -7.0463 C   0  0  0  0  0  0  0  0  0  0  0  0
  -19.3931  -40.8734   -6.0443 C   0  0  0  0  0  0  0  0  0  0  0  0
  -21.7428  -41.3105   -6.5013 C   0  0  0  0  0  0  0  0  0  0  0  0
  -18.3446  -41.0057   -9.6487 C   0  0  1  0  0  0  0  0  0  0  0  0
  -17.3294  -41.3869  -10.5990 N   0  0  0  0  0  0  0  0  0  0  0  0
  -18.1630  -41.8315   -8.4065 C   0  0  0  0  0  0  0  0  0  0  0  0
  -17.8269  -43.2458   -8.7321 C   0  0  0  0  0  0  0  0  0  0  0  0
  -16.6389  -43.8886   -8.8581 C   0  0  0  0  0  0  0  0  0  0  0  0
  -16.6332  -45.2296   -9.2128 C   0  0  0  0  0  0  0  0  0  0  0  0
  -17.8426  -45.8930   -9.4304 C   0  0  0  0  0  0  0  0  0  0  0  0
  -19.0780  -45.2851   -9.3144 C   0  0  0  0  0  0  0  0  0  0  0  0
  -19.0224  -43.9661   -8.9655 C   0  0  0  0  0  0  0  0  0  0  0  0
  -15.5450  -46.0647   -9.3970 O   0  0  0  0  0  0  0  0  0  0  0  0
  -14.4374  -46.1325  -10.2058 C   0  0  0  0  0  0  0  0  0  0  0  0
  -13.3079  -45.3102   -9.6582 C   0  0  0  0  0  0  0  0  0  0  0  0
  -12.5353  -44.5906  -10.7330 C   0  0  0  0  0  0  0  0  0  0  0  0
  -12.1213  -43.2525  -10.2024 C   0  0  0  0  0  0  0  0  0  0  0  0
  -12.5507  -42.1601  -11.0538 N   0  0  0  0  0  0  0  0  0  0  0  0
  1  2  1  0
  2  3  1  0
  3  4  1  0
  4  5  2  0
  5  6  1  0
  6  7  2  0
  7  8  1  0
  8  9  2  0
  8 10  1  0
 10 11  2  0
 10 12  1  0
 12 13  1  0
 13 14  1  6
 14 15  1  0
 15 16  1  0
 16 17  1  0
 17 18  1  0
 16 19  1  0
 19 20  2  0
 20 21  1  0
 21 22  2  0
 22 23  1  0
 23 24  2  0
 21 25  1  0
 25 26  1  0
 25 27  1  0
 13 28  1  0
 28 29  1  6
 28 30  1  0
 30 31  1  0
 31 32  1  0
 32 33  2  0
 33 34  1  0
 34 35  2  0
 35 36  1  0
 33 37  1  0
 37 38  1  0
 38 39  1  0
 39 40  1  0
 40 41  1  0
 41 42  1  0
  9  4  1  0
 18 16  1  0
 24 19  1  0
 36 31  2  0
 42  6  1  0
M  END
$$$$
