
     RDKit          3D

 42 46  0  0  0  0  0  0  0  0999 V2000
  -16.8157  -32.8222  -12.0005 C   0  0  0  0  0  0  0  0  0  0  0  0
  -16.3620  -33.7955  -12.8856 O   0  0  0  0  0  0  0  0  0  0  0  0
  -16.9811  -35.0383  -12.6363 C   0  0  0  0  0  0  0  0  0  0  0  0
  -16.0509  -35.9327  -11.8938 C   0  0  0  0  0  0  0  0  0  0  0  0
  -14.9050  -36.4223  -12.4380 C   0  0  0  0  0  0  0  0  0  0  0  0
  -13.9944  -37.2728  -11.7450 C   0  0  0  0  0  0  0  0  0  0  0  0
  -14.2679  -37.6371  -10.4418 C   0  0  0  0  0  0  0  0  0  0  0  0
  -15.4374  -37.1538   -9.8538 C   0  0  0  0  0  0  0  0  0  0  0  0
  -16.2987  -36.3134  -10.5946 C   0  0  0  0  0  0  0  0  0  0  0  0
  -16.0102  -37.3884   -8.5147 C   0  0  0  0  0  0  0  0  0  0  0  0
  -16.5082  -36.2865   -7.9804 O   0  0  0  0  0  0  0  0  0  0  0  0
  -16.1286  -38.4799   -7.7362 O   0  0  0  0  0  0  0  0  0  0  0  0
  -16.5592  -39.7466   -7.7103 C   0  0  1  0  0  0  0  0  0  0  0  0
  -17.9955  -39.9985   -8.1756 C   0  0  0  0  0  0  0  0  0  0  0  0
  -18.5774  -38.8479   -8.7747 N   0  0  0  0  0  0  0  0  0  0  0  0
  -19.0879  -37.9359   -7.7706 C   0  0  0  0  0  0  0  0  0  0  0  0
  -18.0324  -37.0799   -7.1184 C   0  0  0  0  0  0  0  0  0  0  0  0
  -19.0910  -36.4678   -7.9910 C   0  0  0  0  0  0  0  0  0  0  0  0
  -20.2050  -38.4223   -6.9205 C   0  0  0  0  0  0  0  0  0  0  0  0
  -20.9383  -39.5343   -7.2487 C   0  0  0  0  0  0  0  0  0  0  0  0
  -21.9825  -40.0064   -6.4686 C   0  0  0  0  0  0  0  0  0  0  0  0
  -22.2981  -39.3330   -5.3189 C   0  0  0  0  0  0  0  0  0  0  0  0
  -21.5786  -38.2056   -4.9564 C   0  0  0  0  0  0  0  0  0  0  0  0
  -20.5526  -37.7693   -5.7522 C   0  0  0  0  0  0  0  0  0  0  0  0
  -22.7292  -41.2061   -6.8810 C   0  0  0  0  0  0  0  0  0  0  0  0
  -22.6351  -42.3220   -5.8615 C   0  0  0  0  0  0  0  0  0  0  0  0
  -24.1754  -40.9424   -7.1442 C   0  0  0  0  0  0  0  0  0  0  0  0
  -15.7432  -40.8382   -8.3150 C   0  0  1  0  0  0  0  0  0  0  0  0
  -15.4812  -40.5478   -9.7027 N   0  0  0  0  0  0  0  0  0  0  0  0
  -14.4269  -40.9488   -7.5987 C   0  0  0  0  0  0  0  0  0  0  0  0
  -13.4162  -41.6752   -8.4172 C   0  0  0  0  0  0  0  0  0  0  0  0
  -12.4630  -41.2373   -9.2776 C   0  0  0  0  0  0  0  0  0  0  0  0
  -11.6741  -42.1672   -9.9386 C   0  0  0  0  0  0  0  0  0  0  0  0
  -11.8704  -43.5303   -9.7073 C   0  0  0  0  0  0  0  0  0  0  0  0
  -12.8256  -44.0276   -8.8416 C   0  0  0  0  0  0  0  0  0  0  0  0
  -13.5730  -43.0679   -8.2213 C   0  0  0  0  0  0  0  0  0  0  0  0
  -10.6585  -41.9385  -10.8506 O   0  0  0  0  0  0  0  0  0  0  0  0
  -10.5072  -41.3484  -12.0811 C   0  0  0  0  0  0  0  0  0  0  0  0
  -10.2939  -39.8683  -11.9566 C   0  0  0  0  0  0  0  0  0  0  0  0
  -11.0032  -39.0841  -13.0299 C   0  0  0  0  0  0  0  0  0  0  0  0
  -11.5044  -37.8067  -12.4291 C   0  0  0  0  0  0  0  0  0  0  0  0
  -12.9287  -37.6206  -12.6279 N   0  0  0  0  0  0  0  0  0  0  0  0
  1  2  1  0
  2  3  1  0
  3  4  1  0
  4  5  2  0
  5  6  1  0
  6  7  2  0
  7  8  1  0
  8  9  2  0
  8 10  1  0
 10 11  2  0
 10 12  1  0
 12 13  1  0
 13 14  1  6
 14 15  1  0
 15 16  1  0
 16 17  1  0
 17 18  1  0
 16 19  1  0
 19 20  2  0
 20 21  1  0
 21 22  2  0
 22 23  1  0
 23 24  2  0
 21 25  1  0
 25 26  1  0
 25 27  1  0
 13 28  1  0
 28 29  1  6
 28 30  1  0
 30 31  1  0
 31 32  1  0
 32 33  2  0
 33 34  1  0
 34 35  2  0
 35 36  1  0
 33 37  1  0
 37 38  1  0
 38 39  1  0
 39 40  1  0
 40 41  1  0
 41 42  1  0
  9  4  1  0
 18 16  1  0
 24 19  1  0
 36 31  2  0
 42  6  1  0
M  END
$$$$
