
     RDKit          3D

 42 46  0  0  0  0  0  0  0  0999 V2000
  -11.8374  -44.5879   -7.7491 C   0  0  0  0  0  0  0  0  0  0  0  0
  -11.4783  -43.8667   -8.8839 O   0  0  0  0  0  0  0  0  0  0  0  0
  -12.2817  -44.2219   -9.9877 C   0  0  0  0  0  0  0  0  0  0  0  0
  -13.0645  -43.0429  -10.4503 C   0  0  0  0  0  0  0  0  0  0  0  0
  -12.5533  -42.0976  -11.2834 C   0  0  0  0  0  0  0  0  0  0  0  0
  -13.2849  -40.9651  -11.7470 C   0  0  0  0  0  0  0  0  0  0  0  0
  -14.5932  -40.7933  -11.3413 C   0  0  0  0  0  0  0  0  0  0  0  0
  -15.1480  -41.7442  -10.4840 C   0  0  0  0  0  0  0  0  0  0  0  0
  -14.3696  -42.8452  -10.0610 C   0  0  0  0  0  0  0  0  0  0  0  0
  -16.4836  -41.8174   -9.8618 C   0  0  0  0  0  0  0  0  0  0  0  0
  -16.9782  -43.0433   -9.8747 O   0  0  0  0  0  0  0  0  0  0  0  0
  -17.2906  -40.9041   -9.2907 O   0  0  0  0  0  0  0  0  0  0  0  0
  -17.3452  -39.9396   -8.3649 C   0  0  1  0  0  0  0  0  0  0  0  0
  -16.8637  -40.3030   -6.9582 C   0  0  0  0  0  0  0  0  0  0  0  0
  -17.3969  -41.5423   -6.5096 N   0  0  0  0  0  0  0  0  0  0  0  0
  -18.8364  -41.5832   -6.6731 C   0  0  0  0  0  0  0  0  0  0  0  0
  -19.3285  -42.7117   -7.5430 C   0  0  0  0  0  0  0  0  0  0  0  0
  -19.6508  -42.6714   -6.0762 C   0  0  0  0  0  0  0  0  0  0  0  0
  -19.5438  -40.2801   -6.7669 C   0  0  0  0  0  0  0  0  0  0  0  0
  -20.3335  -39.9564   -7.8410 C   0  0  0  0  0  0  0  0  0  0  0  0
  -21.0040  -38.7477   -7.9470 C   0  0  0  0  0  0  0  0  0  0  0  0
  -20.8721  -37.8342   -6.9356 C   0  0  0  0  0  0  0  0  0  0  0  0
  -20.0822  -38.1274   -5.8356 C   0  0  0  0  0  0  0  0  0  0  0  0
  -19.4354  -39.3328   -5.7653 C   0  0  0  0  0  0  0  0  0  0  0  0
  -21.8346  -38.4647   -9.1289 C   0  0  0  0  0  0  0  0  0  0  0  0
  -22.9860  -37.5327   -8.8140 C   0  0  0  0  0  0  0  0  0  0  0  0
  -21.0654  -37.8793  -10.2673 C   0  0  0  0  0  0  0  0  0  0  0  0
  -16.7852  -38.5863   -8.6446 C   0  0  1  0  0  0  0  0  0  0  0  0
  -15.3943  -38.6934   -9.0089 N   0  0  0  0  0  0  0  0  0  0  0  0
  -17.5260  -37.9534   -9.7886 C   0  0  0  0  0  0  0  0  0  0  0  0
  -16.7451  -36.8418  -10.3999 C   0  0  0  0  0  0  0  0  0  0  0  0
  -15.8885  -36.8076  -11.4513 C   0  0  0  0  0  0  0  0  0  0  0  0
  -15.2671  -35.6105  -11.7750 C   0  0  0  0  0  0  0  0  0  0  0  0
  -15.5336  -34.4663  -11.0202 C   0  0  0  0  0  0  0  0  0  0  0  0
  -16.3972  -34.4476   -9.9418 C   0  0  0  0  0  0  0  0  0  0  0  0
  -16.9777  -35.6529   -9.6683 C   0  0  0  0  0  0  0  0  0  0  0  0
  -14.3659  -35.3589  -12.7948 O   0  0  0  0  0  0  0  0  0  0  0  0
  -13.1218  -35.7893  -13.1851 C   0  0  0  0  0  0  0  0  0  0  0  0
  -13.2078  -37.0439  -14.0037 C   0  0  0  0  0  0  0  0  0  0  0  0
  -12.1013  -38.0189  -13.6957 C   0  0  0  0  0  0  0  0  0  0  0  0
  -12.6573  -39.4072  -13.7797 C   0  0  0  0  0  0  0  0  0  0  0  0
  -12.4299  -40.1711  -12.5683 N   0  0  0  0  0  0  0  0  0  0  0  0
  1  2  1  0
  2  3  1  0
  3  4  1  0
  4  5  2  0
  5  6  1  0
  6  7  2  0
  7  8  1  0
  8  9  2  0
  8 10  1  0
 10 11  2  0
 10 12  1  0
 12 13  1  0
 13 14  1  1
 14 15  1  0
 15 16  1  0
 16 17  1  0
 17 18  1  0
 16 19  1  0
 19 20  2  0
 20 21  1  0
 21 22  2  0
 22 23  1  0
 23 24  2  0
 21 25  1  0
 25 26  1  0
 25 27  1  0
 13 28  1  0
 28 29  1  6
 28 30  1  0
 30 31  1  0
 31 32  1  0
 32 33  2  0
 33 34  1  0
 34 35  2  0
 35 36  1  0
 33 37  1  0
 37 38  1  0
 38 39  1  0
 39 40  1  0
 40 41  1  0
 41 42  1  0
  9  4  1  0
 18 16  1  0
 24 19  1  0
 36 31  2  0
 42  6  1  0
M  END
$$$$
