
     RDKit          3D

 42 46  0  0  0  0  0  0  0  0999 V2000
  -10.3249  -35.3494  -10.2981 C   0  0  0  0  0  0  0  0  0  0  0  0
  -11.6627  -34.9972  -10.1473 O   0  0  0  0  0  0  0  0  0  0  0  0
  -12.4394  -35.4769  -11.2228 C   0  0  0  0  0  0  0  0  0  0  0  0
  -12.8605  -36.8810  -10.9627 C   0  0  0  0  0  0  0  0  0  0  0  0
  -12.4931  -37.9216  -11.7573 C   0  0  0  0  0  0  0  0  0  0  0  0
  -12.8760  -39.2750  -11.5245 C   0  0  0  0  0  0  0  0  0  0  0  0
  -13.6673  -39.5757  -10.4340 C   0  0  0  0  0  0  0  0  0  0  0  0
  -14.0642  -38.5305   -9.5992 C   0  0  0  0  0  0  0  0  0  0  0  0
  -13.6500  -37.2099   -9.8845 C   0  0  0  0  0  0  0  0  0  0  0  0
  -14.9211  -38.5292   -8.3984 C   0  0  0  0  0  0  0  0  0  0  0  0
  -14.4496  -37.7446   -7.4446 O   0  0  0  0  0  0  0  0  0  0  0  0
  -16.0697  -39.1542   -8.0795 O   0  0  0  0  0  0  0  0  0  0  0  0
  -17.3210  -39.3904   -8.4905 C   0  0  1  0  0  0  0  0  0  0  0  0
  -18.1634  -38.1725   -8.8776 C   0  0  0  0  0  0  0  0  0  0  0  0
  -18.2712  -37.2326   -7.8161 N   0  0  0  0  0  0  0  0  0  0  0  0
  -19.3307  -37.5989   -6.8976 C   0  0  0  0  0  0  0  0  0  0  0  0
  -18.8565  -37.9257   -5.5046 C   0  0  0  0  0  0  0  0  0  0  0  0
  -19.7101  -36.7172   -5.7652 C   0  0  0  0  0  0  0  0  0  0  0  0
  -20.4577  -38.3953   -7.4481 C   0  0  0  0  0  0  0  0  0  0  0  0
  -20.7880  -39.6300   -6.9495 C   0  0  0  0  0  0  0  0  0  0  0  0
  -21.8368  -40.3881   -7.4465 C   0  0  0  0  0  0  0  0  0  0  0  0
  -22.5765  -39.8839   -8.4826 C   0  0  0  0  0  0  0  0  0  0  0  0
  -22.2710  -38.6400   -9.0112 C   0  0  0  0  0  0  0  0  0  0  0  0
  -21.2277  -37.9192   -8.4934 C   0  0  0  0  0  0  0  0  0  0  0  0
  -22.1358  -41.7069   -6.8649 C   0  0  0  0  0  0  0  0  0  0  0  0
  -23.3718  -41.6838   -5.9901 C   0  0  0  0  0  0  0  0  0  0  0  0
  -22.3153  -42.7792   -7.8887 C   0  0  0  0  0  0  0  0  0  0  0  0
  -17.5955  -40.4178   -9.5356 C   0  0  1  0  0  0  0  0  0  0  0  0
  -16.8466  -40.1185  -10.7308 N   0  0  0  0  0  0  0  0  0  0  0  0
  -17.1755  -41.7735   -9.0419 C   0  0  0  0  0  0  0  0  0  0  0  0
  -16.9956  -42.7350  -10.1654 C   0  0  0  0  0  0  0  0  0  0  0  0
  -15.9026  -43.0936  -10.8848 C   0  0  0  0  0  0  0  0  0  0  0  0
  -16.0467  -44.0071  -11.9184 C   0  0  0  0  0  0  0  0  0  0  0  0
  -17.3059  -44.5420  -12.1987 C   0  0  0  0  0  0  0  0  0  0  0  0
  -18.4490  -44.2110  -11.4966 C   0  0  0  0  0  0  0  0  0  0  0  0
  -18.2478  -43.3070  -10.4932 C   0  0  0  0  0  0  0  0  0  0  0  0
  -15.0739  -44.5014  -12.7698 O   0  0  0  0  0  0  0  0  0  0  0  0
  -14.1867  -44.0128  -13.6969 C   0  0  0  0  0  0  0  0  0  0  0  0
  -12.9213  -43.5361  -13.0464 C   0  0  0  0  0  0  0  0  0  0  0  0
  -12.3809  -42.2774  -13.6737 C   0  0  0  0  0  0  0  0  0  0  0  0
  -11.7885  -41.4268  -12.5925 C   0  0  0  0  0  0  0  0  0  0  0  0
  -12.3460  -40.0884  -12.5704 N   0  0  0  0  0  0  0  0  0  0  0  0
  1  2  1  0
  2  3  1  0
  3  4  1  0
  4  5  2  0
  5  6  1  0
  6  7  2  0
  7  8  1  0
  8  9  2  0
  8 10  1  0
 10 11  2  0
 10 12  1  0
 12 13  1  0
 13 14  1  6
 14 15  1  0
 15 16  1  0
 16 17  1  0
 17 18  1  0
 16 19  1  0
 19 20  2  0
 20 21  1  0
 21 22  2  0
 22 23  1  0
 23 24  2  0
 21 25  1  0
 25 26  1  0
 25 27  1  0
 13 28  1  0
 28 29  1  6
 28 30  1  0
 30 31  1  0
 31 32  1  0
 32 33  2  0
 33 34  1  0
 34 35  2  0
 35 36  1  0
 33 37  1  0
 37 38  1  0
 38 39  1  0
 39 40  1  0
 40 41  1  0
 41 42  1  0
  9  4  1  0
 18 16  1  0
 24 19  1  0
 36 31  2  0
 42  6  1  0
M  END
$$$$
