
     RDKit          3D

 42 46  0  0  0  0  0  0  0  0999 V2000
  -10.2186  -43.6969  -10.3556 C   0  0  0  0  0  0  0  0  0  0  0  0
  -11.2251  -44.3420   -9.6432 O   0  0  0  0  0  0  0  0  0  0  0  0
  -11.8278  -43.4705   -8.7119 C   0  0  0  0  0  0  0  0  0  0  0  0
  -12.6877  -42.4821   -9.4193 C   0  0  0  0  0  0  0  0  0  0  0  0
  -12.1850  -41.5073  -10.2230 C   0  0  0  0  0  0  0  0  0  0  0  0
  -12.9875  -40.5552  -10.9174 C   0  0  0  0  0  0  0  0  0  0  0  0
  -14.3607  -40.6029  -10.7837 C   0  0  0  0  0  0  0  0  0  0  0  0
  -14.9094  -41.5899   -9.9641 C   0  0  0  0  0  0  0  0  0  0  0  0
  -14.0589  -42.5048   -9.3034 C   0  0  0  0  0  0  0  0  0  0  0  0
  -16.3115  -41.8711   -9.6018 C   0  0  0  0  0  0  0  0  0  0  0  0
  -16.5800  -43.1656   -9.5966 O   0  0  0  0  0  0  0  0  0  0  0  0
  -17.3592  -41.0903   -9.2788 O   0  0  0  0  0  0  0  0  0  0  0  0
  -17.7613  -40.1018   -8.4715 C   0  0  1  0  0  0  0  0  0  0  0  0
  -17.5201  -40.2921   -6.9720 C   0  0  0  0  0  0  0  0  0  0  0  0
  -18.1275  -41.4775   -6.4748 N   0  0  0  0  0  0  0  0  0  0  0  0
  -19.4732  -41.6325   -6.9902 C   0  0  0  0  0  0  0  0  0  0  0  0
  -19.5375  -42.1049   -8.4201 C   0  0  0  0  0  0  0  0  0  0  0  0
  -20.0326  -42.9726   -7.2982 C   0  0  0  0  0  0  0  0  0  0  0  0
  -20.4866  -40.6419   -6.5440 C   0  0  0  0  0  0  0  0  0  0  0  0
  -21.4802  -40.1921   -7.3762 C   0  0  0  0  0  0  0  0  0  0  0  0
  -22.4367  -39.2706   -6.9793 C   0  0  0  0  0  0  0  0  0  0  0  0
  -22.3884  -38.7856   -5.6997 C   0  0  0  0  0  0  0  0  0  0  0  0
  -21.3984  -39.2177   -4.8318 C   0  0  0  0  0  0  0  0  0  0  0  0
  -20.4706  -40.1301   -5.2594 C   0  0  0  0  0  0  0  0  0  0  0  0
  -23.4751  -38.8296   -7.9249 C   0  0  0  0  0  0  0  0  0  0  0  0
  -22.8941  -38.3731   -9.2468 C   0  0  0  0  0  0  0  0  0  0  0  0
  -24.5011  -39.8770   -8.2091 C   0  0  0  0  0  0  0  0  0  0  0  0
  -17.3919  -38.6868   -8.7619 C   0  0  1  0  0  0  0  0  0  0  0  0
  -15.9583  -38.5581   -8.8453 N   0  0  0  0  0  0  0  0  0  0  0  0
  -17.9816  -38.2647  -10.0781 C   0  0  0  0  0  0  0  0  0  0  0  0
  -17.2915  -37.0649  -10.6289 C   0  0  0  0  0  0  0  0  0  0  0  0
  -16.2582  -36.9335  -11.4981 C   0  0  0  0  0  0  0  0  0  0  0  0
  -15.7945  -35.6630  -11.8057 C   0  0  0  0  0  0  0  0  0  0  0  0
  -16.3966  -34.5464  -11.2219 C   0  0  0  0  0  0  0  0  0  0  0  0
  -17.4510  -34.6257  -10.3325 C   0  0  0  0  0  0  0  0  0  0  0  0
  -17.8637  -35.8997  -10.0656 C   0  0  0  0  0  0  0  0  0  0  0  0
  -14.7610  -35.3082  -12.6552 O   0  0  0  0  0  0  0  0  0  0  0  0
  -13.4094  -35.5252  -12.7624 C   0  0  0  0  0  0  0  0  0  0  0  0
  -13.1160  -36.8180  -13.4653 C   0  0  0  0  0  0  0  0  0  0  0  0
  -11.9468  -37.5556  -12.8663 C   0  0  0  0  0  0  0  0  0  0  0  0
  -12.2328  -39.0247  -12.9276 C   0  0  0  0  0  0  0  0  0  0  0  0
  -12.1300  -39.6653  -11.6309 N   0  0  0  0  0  0  0  0  0  0  0  0
  1  2  1  0
  2  3  1  0
  3  4  1  0
  4  5  2  0
  5  6  1  0
  6  7  2  0
  7  8  1  0
  8  9  2  0
  8 10  1  0
 10 11  2  0
 10 12  1  0
 12 13  1  0
 13 14  1  1
 14 15  1  0
 15 16  1  0
 16 17  1  0
 17 18  1  0
 16 19  1  0
 19 20  2  0
 20 21  1  0
 21 22  2  0
 22 23  1  0
 23 24  2  0
 21 25  1  0
 25 26  1  0
 25 27  1  0
 13 28  1  0
 28 29  1  6
 28 30  1  0
 30 31  1  0
 31 32  1  0
 32 33  2  0
 33 34  1  0
 34 35  2  0
 35 36  1  0
 33 37  1  0
 37 38  1  0
 38 39  1  0
 39 40  1  0
 40 41  1  0
 41 42  1  0
  9  4  1  0
 18 16  1  0
 24 19  1  0
 36 31  2  0
 42  6  1  0
M  END
$$$$
