
     RDKit          3D

 42 46  0  0  0  0  0  0  0  0999 V2000
  -10.8360  -43.8395   -7.4950 C   0  0  0  0  0  0  0  0  0  0  0  0
  -10.7486  -43.1818   -8.7183 O   0  0  0  0  0  0  0  0  0  0  0  0
  -11.7195  -43.6596   -9.6233 C   0  0  0  0  0  0  0  0  0  0  0  0
  -12.5037  -42.5226  -10.1790 C   0  0  0  0  0  0  0  0  0  0  0  0
  -11.9347  -41.5050  -10.8788 C   0  0  0  0  0  0  0  0  0  0  0  0
  -12.6648  -40.4104  -11.4279 C   0  0  0  0  0  0  0  0  0  0  0  0
  -14.0331  -40.3550  -11.2535 C   0  0  0  0  0  0  0  0  0  0  0  0
  -14.6486  -41.3825  -10.5377 C   0  0  0  0  0  0  0  0  0  0  0  0
  -13.8682  -42.4405  -10.0193 C   0  0  0  0  0  0  0  0  0  0  0  0
  -16.0612  -41.5832  -10.1628 C   0  0  0  0  0  0  0  0  0  0  0  0
  -16.4448  -42.8407  -10.3013 O   0  0  0  0  0  0  0  0  0  0  0  0
  -17.0264  -40.7594   -9.7140 O   0  0  0  0  0  0  0  0  0  0  0  0
  -17.3185  -39.8445   -8.7823 C   0  0  1  0  0  0  0  0  0  0  0  0
  -17.0596  -40.2344   -7.3250 C   0  0  0  0  0  0  0  0  0  0  0  0
  -17.6484  -41.4841   -6.9888 N   0  0  0  0  0  0  0  0  0  0  0  0
  -19.0950  -41.4133   -7.0434 C   0  0  0  0  0  0  0  0  0  0  0  0
  -19.7485  -42.6034   -7.6982 C   0  0  0  0  0  0  0  0  0  0  0  0
  -19.9438  -42.3241   -6.2350 C   0  0  0  0  0  0  0  0  0  0  0  0
  -19.6981  -40.0765   -7.2814 C   0  0  0  0  0  0  0  0  0  0  0  0
  -21.0057  -39.9267   -7.6687 C   0  0  0  0  0  0  0  0  0  0  0  0
  -21.5886  -38.6892   -7.8934 C   0  0  0  0  0  0  0  0  0  0  0  0
  -20.8259  -37.5648   -7.7228 C   0  0  0  0  0  0  0  0  0  0  0  0
  -19.5013  -37.6786   -7.3324 C   0  0  0  0  0  0  0  0  0  0  0  0
  -18.9599  -38.9186   -7.1187 C   0  0  0  0  0  0  0  0  0  0  0  0
  -22.9980  -38.6007   -8.3089 C   0  0  0  0  0  0  0  0  0  0  0  0
  -23.4591  -39.8389   -9.0491 C   0  0  0  0  0  0  0  0  0  0  0  0
  -23.9374  -38.3664   -7.1719 C   0  0  0  0  0  0  0  0  0  0  0  0
  -16.8305  -38.4420   -8.9162 C   0  0  1  0  0  0  0  0  0  0  0  0
  -15.3935  -38.4286   -9.0333 N   0  0  0  0  0  0  0  0  0  0  0  0
  -17.4112  -37.8149  -10.1522 C   0  0  0  0  0  0  0  0  0  0  0  0
  -16.6294  -36.6216  -10.5810 C   0  0  0  0  0  0  0  0  0  0  0  0
  -15.6095  -36.4761  -11.4637 C   0  0  0  0  0  0  0  0  0  0  0  0
  -15.0409  -35.2226  -11.6351 C   0  0  0  0  0  0  0  0  0  0  0  0
  -15.5260  -34.1368  -10.9032 C   0  0  0  0  0  0  0  0  0  0  0  0
  -16.5617  -34.2314   -9.9935 C   0  0  0  0  0  0  0  0  0  0  0  0
  -17.0808  -35.4878   -9.8647 C   0  0  0  0  0  0  0  0  0  0  0  0
  -14.0004  -34.8585  -12.4720 O   0  0  0  0  0  0  0  0  0  0  0  0
  -12.6767  -35.1770  -12.6506 C   0  0  0  0  0  0  0  0  0  0  0  0
  -12.5176  -36.3961  -13.5109 C   0  0  0  0  0  0  0  0  0  0  0  0
  -11.4055  -37.2989  -13.0439 C   0  0  0  0  0  0  0  0  0  0  0  0
  -11.8239  -38.7195  -13.2683 C   0  0  0  0  0  0  0  0  0  0  0  0
  -11.7481  -39.5184  -12.0605 N   0  0  0  0  0  0  0  0  0  0  0  0
  1  2  1  0
  2  3  1  0
  3  4  1  0
  4  5  2  0
  5  6  1  0
  6  7  2  0
  7  8  1  0
  8  9  2  0
  8 10  1  0
 10 11  2  0
 10 12  1  0
 12 13  1  0
 13 14  1  1
 14 15  1  0
 15 16  1  0
 16 17  1  0
 17 18  1  0
 16 19  1  0
 19 20  2  0
 20 21  1  0
 21 22  2  0
 22 23  1  0
 23 24  2  0
 21 25  1  0
 25 26  1  0
 25 27  1  0
 13 28  1  0
 28 29  1  6
 28 30  1  0
 30 31  1  0
 31 32  1  0
 32 33  2  0
 33 34  1  0
 34 35  2  0
 35 36  1  0
 33 37  1  0
 37 38  1  0
 38 39  1  0
 39 40  1  0
 40 41  1  0
 41 42  1  0
  9  4  1  0
 18 16  1  0
 24 19  1  0
 36 31  2  0
 42  6  1  0
M  END
$$$$
