
     RDKit          3D

 42 46  0  0  0  0  0  0  0  0999 V2000
  -10.7067  -35.1689  -11.6650 C   0  0  0  0  0  0  0  0  0  0  0  0
  -11.3233  -36.4120  -11.5589 O   0  0  0  0  0  0  0  0  0  0  0  0
  -12.7282  -36.2866  -11.5814 C   0  0  0  0  0  0  0  0  0  0  0  0
  -13.3629  -37.5841  -11.2206 C   0  0  0  0  0  0  0  0  0  0  0  0
  -13.2057  -38.7142  -11.9602 C   0  0  0  0  0  0  0  0  0  0  0  0
  -13.7956  -39.9698  -11.6311 C   0  0  0  0  0  0  0  0  0  0  0  0
  -14.5785  -40.0727  -10.4987 C   0  0  0  0  0  0  0  0  0  0  0  0
  -14.7624  -38.9307   -9.7183 C   0  0  0  0  0  0  0  0  0  0  0  0
  -14.1493  -37.7157  -10.0988 C   0  0  0  0  0  0  0  0  0  0  0  0
  -15.5556  -38.7193   -8.4925 C   0  0  0  0  0  0  0  0  0  0  0  0
  -14.9214  -37.9719   -7.6054 O   0  0  0  0  0  0  0  0  0  0  0  0
  -16.7767  -39.1252   -8.0980 O   0  0  0  0  0  0  0  0  0  0  0  0
  -18.0661  -39.1723   -8.4524 C   0  0  1  0  0  0  0  0  0  0  0  0
  -18.7125  -37.8547   -8.8870 C   0  0  0  0  0  0  0  0  0  0  0  0
  -19.0677  -37.0376   -7.7790 N   0  0  0  0  0  0  0  0  0  0  0  0
  -18.1379  -35.9372   -7.6201 C   0  0  0  0  0  0  0  0  0  0  0  0
  -18.7553  -34.6817   -7.0592 C   0  0  0  0  0  0  0  0  0  0  0  0
  -17.7338  -35.4556   -6.2753 C   0  0  0  0  0  0  0  0  0  0  0  0
  -17.0861  -35.7853   -8.6584 C   0  0  0  0  0  0  0  0  0  0  0  0
  -16.1243  -36.7414   -8.8652 C   0  0  0  0  0  0  0  0  0  0  0  0
  -15.1359  -36.6207   -9.8297 C   0  0  0  0  0  0  0  0  0  0  0  0
  -15.1167  -35.4965  -10.6112 C   0  0  0  0  0  0  0  0  0  0  0  0
  -16.0727  -34.5100  -10.4298 C   0  0  0  0  0  0  0  0  0  0  0  0
  -17.0347  -34.6647   -9.4670 C   0  0  0  0  0  0  0  0  0  0  0  0
  -14.1331  -37.6852   -9.9974 C   0  0  0  0  0  0  0  0  0  0  0  0
  -13.9933  -38.5453   -8.7588 C   0  0  0  0  0  0  0  0  0  0  0  0
  -14.4130  -38.5858  -11.1552 C   0  0  0  0  0  0  0  0  0  0  0  0
  -18.5500  -40.1966   -9.4219 C   0  0  1  0  0  0  0  0  0  0  0  0
  -17.8135  -40.0938  -10.6572 N   0  0  0  0  0  0  0  0  0  0  0  0
  -18.3380  -41.5735   -8.8585 C   0  0  0  0  0  0  0  0  0  0  0  0
  -18.3665  -42.6130   -9.9251 C   0  0  0  0  0  0  0  0  0  0  0  0
  -17.3789  -43.1885  -10.6559 C   0  0  0  0  0  0  0  0  0  0  0  0
  -17.7151  -44.1218  -11.6253 C   0  0  0  0  0  0  0  0  0  0  0  0
  -19.0558  -44.4543  -11.8304 C   0  0  0  0  0  0  0  0  0  0  0  0
  -20.0981  -43.8986  -11.1134 C   0  0  0  0  0  0  0  0  0  0  0  0
  -19.7085  -42.9859  -10.1754 C   0  0  0  0  0  0  0  0  0  0  0  0
  -16.8738  -44.8184  -12.4754 O   0  0  0  0  0  0  0  0  0  0  0  0
  -15.9586  -44.5372  -13.4597 C   0  0  0  0  0  0  0  0  0  0  0  0
  -14.6056  -44.2423  -12.8818 C   0  0  0  0  0  0  0  0  0  0  0  0
  -13.8927  -43.1285  -13.6038 C   0  0  0  0  0  0  0  0  0  0  0  0
  -13.1231  -42.3291  -12.5976 C   0  0  0  0  0  0  0  0  0  0  0  0
  -13.4515  -40.9174  -12.6409 N   0  0  0  0  0  0  0  0  0  0  0  0
  1  2  1  0
  2  3  1  0
  3  4  1  0
  4  5  2  0
  5  6  1  0
  6  7  2  0
  7  8  1  0
  8  9  2  0
  8 10  1  0
 10 11  2  0
 10 12  1  0
 12 13  1  0
 13 14  1  6
 14 15  1  0
 15 16  1  0
 16 17  1  0
 17 18  1  0
 16 19  1  0
 19 20  2  0
 20 21  1  0
 21 22  2  0
 22 23  1  0
 23 24  2  0
 21 25  1  0
 25 26  1  0
 25 27  1  0
 13 28  1  0
 28 29  1  6
 28 30  1  0
 30 31  1  0
 31 32  1  0
 32 33  2  0
 33 34  1  0
 34 35  2  0
 35 36  1  0
 33 37  1  0
 37 38  1  0
 38 39  1  0
 39 40  1  0
 40 41  1  0
 41 42  1  0
  9  4  1  0
 18 16  1  0
 24 19  1  0
 36 31  2  0
 42  6  1  0
M  END
$$$$
