
     RDKit          3D

 42 46  0  0  0  0  0  0  0  0999 V2000
  -12.2036  -44.9887   -9.3967 C   0  0  0  0  0  0  0  0  0  0  0  0
  -13.4549  -45.3154   -8.8826 O   0  0  0  0  0  0  0  0  0  0  0  0
  -14.4385  -45.3066   -9.8938 C   0  0  0  0  0  0  0  0  0  0  0  0
  -14.5603  -43.9419  -10.4763 C   0  0  0  0  0  0  0  0  0  0  0  0
  -13.5773  -43.3648  -11.2177 C   0  0  0  0  0  0  0  0  0  0  0  0
  -13.6735  -42.0638  -11.7930 C   0  0  0  0  0  0  0  0  0  0  0  0
  -14.8228  -41.3232  -11.6014 C   0  0  0  0  0  0  0  0  0  0  0  0
  -15.8504  -41.8852  -10.8430 C   0  0  0  0  0  0  0  0  0  0  0  0
  -15.6932  -43.1805  -10.3004 C   0  0  0  0  0  0  0  0  0  0  0  0
  -17.1608  -41.3390  -10.4419 C   0  0  0  0  0  0  0  0  0  0  0  0
  -18.1285  -42.2351  -10.5328 O   0  0  0  0  0  0  0  0  0  0  0  0
  -17.5674  -40.1317  -10.0076 O   0  0  0  0  0  0  0  0  0  0  0  0
  -17.3328  -39.1740   -9.1030 C   0  0  1  0  0  0  0  0  0  0  0  0
  -17.2629  -39.6091   -7.6372 C   0  0  0  0  0  0  0  0  0  0  0  0
  -18.5254  -40.0348   -7.1409 N   0  0  0  0  0  0  0  0  0  0  0  0
  -19.5861  -39.1498   -7.5791 C   0  0  0  0  0  0  0  0  0  0  0  0
  -19.2459  -37.6841   -7.4890 C   0  0  0  0  0  0  0  0  0  0  0  0
  -19.4579  -38.3463   -8.8207 C   0  0  0  0  0  0  0  0  0  0  0  0
  -20.9798  -39.5559   -7.2626 C   0  0  0  0  0  0  0  0  0  0  0  0
  -21.3521  -39.9606   -6.0058 C   0  0  0  0  0  0  0  0  0  0  0  0
  -22.6469  -40.3410   -5.6886 C   0  0  0  0  0  0  0  0  0  0  0  0
  -23.5980  -40.3132   -6.6734 C   0  0  0  0  0  0  0  0  0  0  0  0
  -23.2573  -39.9099   -7.9545 C   0  0  0  0  0  0  0  0  0  0  0  0
  -21.9675  -39.5402   -8.2302 C   0  0  0  0  0  0  0  0  0  0  0  0
  -22.9777  -40.7662   -4.3187 C   0  0  0  0  0  0  0  0  0  0  0  0
  -23.8303  -39.7487   -3.5898 C   0  0  0  0  0  0  0  0  0  0  0  0
  -23.6796  -42.0830   -4.2601 C   0  0  0  0  0  0  0  0  0  0  0  0
  -16.2098  -38.2112   -9.2908 C   0  0  1  0  0  0  0  0  0  0  0  0
  -14.9650  -38.9257   -9.4283 N   0  0  0  0  0  0  0  0  0  0  0  0
  -16.4319  -37.4043  -10.5388 C   0  0  0  0  0  0  0  0  0  0  0  0
  -15.1689  -36.7767  -11.0184 C   0  0  0  0  0  0  0  0  0  0  0  0
  -14.2402  -37.1838  -11.9196 C   0  0  0  0  0  0  0  0  0  0  0  0
  -13.1237  -36.3912  -12.1409 C   0  0  0  0  0  0  0  0  0  0  0  0
  -12.9756  -35.1930  -11.4390 C   0  0  0  0  0  0  0  0  0  0  0  0
  -13.8916  -34.7333  -10.5123 C   0  0  0  0  0  0  0  0  0  0  0  0
  -14.9681  -35.5543  -10.3342 C   0  0  0  0  0  0  0  0  0  0  0  0
  -12.0660  -36.6190  -13.0039 O   0  0  0  0  0  0  0  0  0  0  0  0
  -11.0877  -37.5644  -13.1903 C   0  0  0  0  0  0  0  0  0  0  0  0
  -11.5882  -38.7163  -14.0113 C   0  0  0  0  0  0  0  0  0  0  0  0
  -11.0679  -40.0457  -13.5299 C   0  0  0  0  0  0  0  0  0  0  0  0
  -12.1501  -41.0671  -13.7006 C   0  0  0  0  0  0  0  0  0  0  0  0
  -12.4514  -41.7688  -12.4679 N   0  0  0  0  0  0  0  0  0  0  0  0
  1  2  1  0
  2  3  1  0
  3  4  1  0
  4  5  2  0
  5  6  1  0
  6  7  2  0
  7  8  1  0
  8  9  2  0
  8 10  1  0
 10 11  2  0
 10 12  1  0
 12 13  1  0
 13 14  1  1
 14 15  1  0
 15 16  1  0
 16 17  1  0
 17 18  1  0
 16 19  1  0
 19 20  2  0
 20 21  1  0
 21 22  2  0
 22 23  1  0
 23 24  2  0
 21 25  1  0
 25 26  1  0
 25 27  1  0
 13 28  1  0
 28 29  1  6
 28 30  1  0
 30 31  1  0
 31 32  1  0
 32 33  2  0
 33 34  1  0
 34 35  2  0
 35 36  1  0
 33 37  1  0
 37 38  1  0
 38 39  1  0
 39 40  1  0
 40 41  1  0
 41 42  1  0
  9  4  1  0
 18 16  1  0
 24 19  1  0
 36 31  2  0
 42  6  1  0
M  END
$$$$
