
     RDKit          3D

 42 46  0  0  0  0  0  0  0  0999 V2000
  -11.4063  -44.2420   -7.9442 C   0  0  0  0  0  0  0  0  0  0  0  0
  -11.0222  -43.7617   -9.1926 O   0  0  0  0  0  0  0  0  0  0  0  0
  -11.9983  -44.0479  -10.1701 C   0  0  0  0  0  0  0  0  0  0  0  0
  -12.6308  -42.7867  -10.6452 C   0  0  0  0  0  0  0  0  0  0  0  0
  -11.9222  -41.7705  -11.2056 C   0  0  0  0  0  0  0  0  0  0  0  0
  -12.5055  -40.5575  -11.6758 C   0  0  0  0  0  0  0  0  0  0  0  0
  -13.8700  -40.3773  -11.5679 C   0  0  0  0  0  0  0  0  0  0  0  0
  -14.6267  -41.4001  -10.9950 C   0  0  0  0  0  0  0  0  0  0  0  0
  -13.9879  -42.5790  -10.5490 C   0  0  0  0  0  0  0  0  0  0  0  0
  -16.0729  -41.4883  -10.7168 C   0  0  0  0  0  0  0  0  0  0  0  0
  -16.5688  -42.6795  -11.0043 O   0  0  0  0  0  0  0  0  0  0  0  0
  -16.9784  -40.6162  -10.2360 O   0  0  0  0  0  0  0  0  0  0  0  0
  -17.2365  -39.7712   -9.2312 C   0  0  1  0  0  0  0  0  0  0  0  0
  -17.1082  -40.3262   -7.8105 C   0  0  0  0  0  0  0  0  0  0  0  0
  -17.8863  -41.5006   -7.6186 N   0  0  0  0  0  0  0  0  0  0  0  0
  -19.2804  -41.1745   -7.3934 C   0  0  0  0  0  0  0  0  0  0  0  0
  -20.1960  -42.3710   -7.3471 C   0  0  0  0  0  0  0  0  0  0  0  0
  -19.9617  -41.5313   -6.1237 C   0  0  0  0  0  0  0  0  0  0  0  0
  -19.7961  -39.9345   -8.0289 C   0  0  0  0  0  0  0  0  0  0  0  0
  -20.4535  -39.9530   -9.2328 C   0  0  0  0  0  0  0  0  0  0  0  0
  -20.9447  -38.8085   -9.8416 C   0  0  0  0  0  0  0  0  0  0  0  0
  -20.7652  -37.6043   -9.2148 C   0  0  0  0  0  0  0  0  0  0  0  0
  -20.1053  -37.5482   -7.9977 C   0  0  0  0  0  0  0  0  0  0  0  0
  -19.6346  -38.7005   -7.4261 C   0  0  0  0  0  0  0  0  0  0  0  0
  -21.6401  -38.9002  -11.1357 C   0  0  0  0  0  0  0  0  0  0  0  0
  -21.8250  -37.5458  -11.7876 C   0  0  0  0  0  0  0  0  0  0  0  0
  -20.9532  -39.7938  -12.1155 C   0  0  0  0  0  0  0  0  0  0  0  0
  -16.6056  -38.4208   -9.1939 C   0  0  1  0  0  0  0  0  0  0  0  0
  -15.1697  -38.5456   -9.2342 N   0  0  0  0  0  0  0  0  0  0  0  0
  -17.0439  -37.6191  -10.3869 C   0  0  0  0  0  0  0  0  0  0  0  0
  -16.1234  -36.4775  -10.6490 C   0  0  0  0  0  0  0  0  0  0  0  0
  -15.0413  -36.3535  -11.4577 C   0  0  0  0  0  0  0  0  0  0  0  0
  -14.3427  -35.1553  -11.4689 C   0  0  0  0  0  0  0  0  0  0  0  0
  -14.7633  -34.1015  -10.6548 C   0  0  0  0  0  0  0  0  0  0  0  0
  -15.8578  -34.1761   -9.8148 C   0  0  0  0  0  0  0  0  0  0  0  0
  -16.5049  -35.3782   -9.8437 C   0  0  0  0  0  0  0  0  0  0  0  0
  -13.2214  -34.8216  -12.2085 O   0  0  0  0  0  0  0  0  0  0  0  0
  -11.9269  -35.2571  -12.3500 C   0  0  0  0  0  0  0  0  0  0  0  0
  -11.8353  -36.3964  -13.3223 C   0  0  0  0  0  0  0  0  0  0  0  0
  -10.8485  -37.4512  -12.8939 C   0  0  0  0  0  0  0  0  0  0  0  0
  -11.3897  -38.7919  -13.2854 C   0  0  0  0  0  0  0  0  0  0  0  0
  -11.4680  -39.7083  -12.1644 N   0  0  0  0  0  0  0  0  0  0  0  0
  1  2  1  0
  2  3  1  0
  3  4  1  0
  4  5  2  0
  5  6  1  0
  6  7  2  0
  7  8  1  0
  8  9  2  0
  8 10  1  0
 10 11  2  0
 10 12  1  0
 12 13  1  0
 13 14  1  1
 14 15  1  0
 15 16  1  0
 16 17  1  0
 17 18  1  0
 16 19  1  0
 19 20  2  0
 20 21  1  0
 21 22  2  0
 22 23  1  0
 23 24  2  0
 21 25  1  0
 25 26  1  0
 25 27  1  0
 13 28  1  0
 28 29  1  6
 28 30  1  0
 30 31  1  0
 31 32  1  0
 32 33  2  0
 33 34  1  0
 34 35  2  0
 35 36  1  0
 33 37  1  0
 37 38  1  0
 38 39  1  0
 39 40  1  0
 40 41  1  0
 41 42  1  0
  9  4  1  0
 18 16  1  0
 24 19  1  0
 36 31  2  0
 42  6  1  0
M  END
$$$$
