
     RDKit          3D

 42 46  0  0  0  0  0  0  0  0999 V2000
  -13.4733  -33.9707  -13.4447 C   0  0  0  0  0  0  0  0  0  0  0  0
  -14.3545  -34.6701  -12.6257 O   0  0  0  0  0  0  0  0  0  0  0  0
  -13.8224  -34.8352  -11.3297 C   0  0  0  0  0  0  0  0  0  0  0  0
  -13.6261  -36.2820  -11.0383 C   0  0  0  0  0  0  0  0  0  0  0  0
  -12.7634  -37.0660  -11.7382 C   0  0  0  0  0  0  0  0  0  0  0  0
  -12.5515  -38.4507  -11.4730 C   0  0  0  0  0  0  0  0  0  0  0  0
  -13.2515  -39.0577  -10.4495 C   0  0  0  0  0  0  0  0  0  0  0  0
  -14.1472  -38.2820   -9.7128 C   0  0  0  0  0  0  0  0  0  0  0  0
  -14.3111  -36.9137  -10.0255 C   0  0  0  0  0  0  0  0  0  0  0  0
  -15.0476  -38.6445   -8.6018 C   0  0  0  0  0  0  0  0  0  0  0  0
  -15.0658  -37.7279   -7.6493 O   0  0  0  0  0  0  0  0  0  0  0  0
  -15.8443  -39.7027   -8.3629 O   0  0  0  0  0  0  0  0  0  0  0  0
  -16.8200  -40.4586   -8.8797 C   0  0  1  0  0  0  0  0  0  0  0  0
  -18.0554  -39.7264   -9.4092 C   0  0  0  0  0  0  0  0  0  0  0  0
  -18.5965  -38.8226   -8.4544 N   0  0  0  0  0  0  0  0  0  0  0  0
  -19.2162  -39.5326   -7.3533 C   0  0  0  0  0  0  0  0  0  0  0  0
  -18.2920  -40.4768   -6.6277 C   0  0  0  0  0  0  0  0  0  0  0  0
  -18.8378  -39.2550   -5.9449 C   0  0  0  0  0  0  0  0  0  0  0  0
  -20.6313  -39.9499   -7.5285 C   0  0  0  0  0  0  0  0  0  0  0  0
  -21.5409  -39.8863   -6.5035 C   0  0  0  0  0  0  0  0  0  0  0  0
  -22.8659  -40.2680   -6.6463 C   0  0  0  0  0  0  0  0  0  0  0  0
  -23.2870  -40.7308   -7.8643 C   0  0  0  0  0  0  0  0  0  0  0  0
  -22.3952  -40.8088   -8.9220 C   0  0  0  0  0  0  0  0  0  0  0  0
  -21.0935  -40.4217   -8.7434 C   0  0  0  0  0  0  0  0  0  0  0  0
  -23.7889  -40.1750   -5.5034 C   0  0  0  0  0  0  0  0  0  0  0  0
  -24.2390  -38.7531   -5.2406 C   0  0  0  0  0  0  0  0  0  0  0  0
  -25.0081  -41.0240   -5.6558 C   0  0  0  0  0  0  0  0  0  0  0  0
  -16.5109  -41.5096   -9.8912 C   0  0  1  0  0  0  0  0  0  0  0  0
  -15.8370  -40.9227  -11.0226 N   0  0  0  0  0  0  0  0  0  0  0  0
  -15.6069  -42.5480   -9.2890 C   0  0  0  0  0  0  0  0  0  0  0  0
  -14.9100  -43.3435  -10.3382 C   0  0  0  0  0  0  0  0  0  0  0  0
  -13.6974  -43.1985  -10.9290 C   0  0  0  0  0  0  0  0  0  0  0  0
  -13.3216  -44.0904  -11.9226 C   0  0  0  0  0  0  0  0  0  0  0  0
  -14.1905  -45.1185  -12.2945 C   0  0  0  0  0  0  0  0  0  0  0  0
  -15.4343  -45.3100  -11.7242 C   0  0  0  0  0  0  0  0  0  0  0  0
  -15.7516  -44.4023  -10.7547 C   0  0  0  0  0  0  0  0  0  0  0  0
  -12.1440  -44.1205  -12.6492 O   0  0  0  0  0  0  0  0  0  0  0  0
  -11.4566  -43.3017  -13.5108 C   0  0  0  0  0  0  0  0  0  0  0  0
  -10.5977  -42.3214  -12.7672 C   0  0  0  0  0  0  0  0  0  0  0  0
  -10.5843  -40.9563  -13.4045 C   0  0  0  0  0  0  0  0  0  0  0  0
  -10.5365  -39.9272  -12.3171 C   0  0  0  0  0  0  0  0  0  0  0  0
  -11.6129  -38.9609  -12.4189 N   0  0  0  0  0  0  0  0  0  0  0  0
  1  2  1  0
  2  3  1  0
  3  4  1  0
  4  5  2  0
  5  6  1  0
  6  7  2  0
  7  8  1  0
  8  9  2  0
  8 10  1  0
 10 11  2  0
 10 12  1  0
 12 13  1  0
 13 14  1  6
 14 15  1  0
 15 16  1  0
 16 17  1  0
 17 18  1  0
 16 19  1  0
 19 20  2  0
 20 21  1  0
 21 22  2  0
 22 23  1  0
 23 24  2  0
 21 25  1  0
 25 26  1  0
 25 27  1  0
 13 28  1  0
 28 29  1  6
 28 30  1  0
 30 31  1  0
 31 32  1  0
 32 33  2  0
 33 34  1  0
 34 35  2  0
 35 36  1  0
 33 37  1  0
 37 38  1  0
 38 39  1  0
 39 40  1  0
 40 41  1  0
 41 42  1  0
  9  4  1  0
 18 16  1  0
 24 19  1  0
 36 31  2  0
 42  6  1  0
M  END
$$$$
