
     RDKit          3D

 42 46  0  0  0  0  0  0  0  0999 V2000
  -12.1499  -44.4036   -6.3288 C   0  0  0  0  0  0  0  0  0  0  0  0
  -13.1822  -44.4262   -7.2619 O   0  0  0  0  0  0  0  0  0  0  0  0
  -13.2962  -43.1860   -7.9244 C   0  0  0  0  0  0  0  0  0  0  0  0
  -14.5623  -42.5099   -7.5288 C   0  0  0  0  0  0  0  0  0  0  0  0
  -15.4204  -43.0278   -6.6099 C   0  0  0  0  0  0  0  0  0  0  0  0
  -16.6337  -42.3958   -6.2084 C   0  0  0  0  0  0  0  0  0  0  0  0
  -16.9829  -41.1842   -6.7704 C   0  0  0  0  0  0  0  0  0  0  0  0
  -16.1254  -40.6259   -7.7190 C   0  0  0  0  0  0  0  0  0  0  0  0
  -14.9366  -41.3027   -8.0734 C   0  0  0  0  0  0  0  0  0  0  0  0
  -16.2382  -39.3835   -8.5065 C   0  0  0  0  0  0  0  0  0  0  0  0
  -15.0886  -38.7364   -8.5929 O   0  0  0  0  0  0  0  0  0  0  0  0
  -17.2579  -38.7823   -9.1470 O   0  0  0  0  0  0  0  0  0  0  0  0
  -18.2333  -38.9732  -10.0429 C   0  0  1  0  0  0  0  0  0  0  0  0
  -17.8279  -39.5807  -11.3880 C   0  0  0  0  0  0  0  0  0  0  0  0
  -17.4996  -38.5874  -12.3508 N   0  0  0  0  0  0  0  0  0  0  0  0
  -18.4693  -37.5103  -12.3438 C   0  0  0  0  0  0  0  0  0  0  0  0
  -19.7498  -37.8259  -13.0738 C   0  0  0  0  0  0  0  0  0  0  0  0
  -19.7408  -37.6208  -11.5856 C   0  0  0  0  0  0  0  0  0  0  0  0
  -17.9420  -36.1248  -12.4419 C   0  0  0  0  0  0  0  0  0  0  0  0
  -16.5983  -35.8525  -12.3926 C   0  0  0  0  0  0  0  0  0  0  0  0
  -16.0852  -34.5680  -12.4848 C   0  0  0  0  0  0  0  0  0  0  0  0
  -16.9576  -33.5227  -12.6305 C   0  0  0  0  0  0  0  0  0  0  0  0
  -18.3216  -33.7608  -12.6840 C   0  0  0  0  0  0  0  0  0  0  0  0
  -18.7917  -35.0440  -12.5904 C   0  0  0  0  0  0  0  0  0  0  0  0
  -14.6312  -34.3468  -12.4232 C   0  0  0  0  0  0  0  0  0  0  0  0
  -14.2496  -33.3097  -11.3877 C   0  0  0  0  0  0  0  0  0  0  0  0
  -13.8543  -35.5901  -12.1389 C   0  0  0  0  0  0  0  0  0  0  0  0
  -19.4966  -39.6634   -9.6542 C   0  0  1  0  0  0  0  0  0  0  0  0
  -19.2011  -40.9700   -9.1209 N   0  0  0  0  0  0  0  0  0  0  0  0
  -20.2069  -38.8699   -8.5941 C   0  0  0  0  0  0  0  0  0  0  0  0
  -21.1970  -39.7031   -7.8562 C   0  0  0  0  0  0  0  0  0  0  0  0
  -21.1033  -40.4142   -6.7046 C   0  0  0  0  0  0  0  0  0  0  0  0
  -22.2031  -41.1387   -6.2693 C   0  0  0  0  0  0  0  0  0  0  0  0
  -23.3824  -41.1226   -7.0169 C   0  0  0  0  0  0  0  0  0  0  0  0
  -23.5298  -40.4150   -8.1945 C   0  0  0  0  0  0  0  0  0  0  0  0
  -22.4158  -39.7231   -8.5751 C   0  0  0  0  0  0  0  0  0  0  0  0
  -22.3195  -41.9260   -5.1369 O   0  0  0  0  0  0  0  0  0  0  0  0
  -21.7227  -43.0429   -4.6061 C   0  0  0  0  0  0  0  0  0  0  0  0
  -20.4798  -42.6898   -3.8429 C   0  0  0  0  0  0  0  0  0  0  0  0
  -19.3709  -43.6908   -4.0383 C   0  0  0  0  0  0  0  0  0  0  0  0
  -18.0676  -42.9531   -4.0668 C   0  0  0  0  0  0  0  0  0  0  0  0
  -17.2964  -43.2336   -5.2623 N   0  0  0  0  0  0  0  0  0  0  0  0
  1  2  1  0
  2  3  1  0
  3  4  1  0
  4  5  2  0
  5  6  1  0
  6  7  2  0
  7  8  1  0
  8  9  2  0
  8 10  1  0
 10 11  2  0
 10 12  1  0
 12 13  1  0
 13 14  1  6
 14 15  1  0
 15 16  1  0
 16 17  1  0
 17 18  1  0
 16 19  1  0
 19 20  2  0
 20 21  1  0
 21 22  2  0
 22 23  1  0
 23 24  2  0
 21 25  1  0
 25 26  1  0
 25 27  1  0
 13 28  1  0
 28 29  1  1
 28 30  1  0
 30 31  1  0
 31 32  1  0
 32 33  2  0
 33 34  1  0
 34 35  2  0
 35 36  1  0
 33 37  1  0
 37 38  1  0
 38 39  1  0
 39 40  1  0
 40 41  1  0
 41 42  1  0
  9  4  1  0
 18 16  1  0
 24 19  1  0
 36 31  2  0
 42  6  1  0
M  END
$$$$
