
     RDKit          3D

 42 46  0  0  0  0  0  0  0  0999 V2000
  -10.8823  -35.3661  -10.3065 C   0  0  0  0  0  0  0  0  0  0  0  0
  -11.1541  -35.5919  -11.6526 O   0  0  0  0  0  0  0  0  0  0  0  0
  -12.5370  -35.7666  -11.8699 C   0  0  0  0  0  0  0  0  0  0  0  0
  -12.9310  -37.1671  -11.5536 C   0  0  0  0  0  0  0  0  0  0  0  0
  -12.6039  -38.2232  -12.3451 C   0  0  0  0  0  0  0  0  0  0  0  0
  -12.9618  -39.5734  -12.0596 C   0  0  0  0  0  0  0  0  0  0  0  0
  -13.6843  -39.8540  -10.9171 C   0  0  0  0  0  0  0  0  0  0  0  0
  -14.0387  -38.7924  -10.0838 C   0  0  0  0  0  0  0  0  0  0  0  0
  -13.6524  -37.4761  -10.4230 C   0  0  0  0  0  0  0  0  0  0  0  0
  -14.8224  -38.7690   -8.8342 C   0  0  0  0  0  0  0  0  0  0  0  0
  -14.3008  -37.9598   -7.9282 O   0  0  0  0  0  0  0  0  0  0  0  0
  -15.9451  -39.3937   -8.4332 O   0  0  0  0  0  0  0  0  0  0  0  0
  -17.2169  -39.6470   -8.7632 C   0  0  1  0  0  0  0  0  0  0  0  0
  -18.0901  -38.4436   -9.1264 C   0  0  0  0  0  0  0  0  0  0  0  0
  -18.0918  -37.4521   -8.1074 N   0  0  0  0  0  0  0  0  0  0  0  0
  -18.9387  -37.8424   -6.9980 C   0  0  0  0  0  0  0  0  0  0  0  0
  -18.1878  -38.3696   -5.8020 C   0  0  0  0  0  0  0  0  0  0  0  0
  -18.9480  -37.0761   -5.7266 C   0  0  0  0  0  0  0  0  0  0  0  0
  -20.2400  -38.4772   -7.3311 C   0  0  0  0  0  0  0  0  0  0  0  0
  -20.4185  -39.2142   -8.4744 C   0  0  0  0  0  0  0  0  0  0  0  0
  -21.6230  -39.8168   -8.8028 C   0  0  0  0  0  0  0  0  0  0  0  0
  -22.6836  -39.6697   -7.9493 C   0  0  0  0  0  0  0  0  0  0  0  0
  -22.5392  -38.9318   -6.7854 C   0  0  0  0  0  0  0  0  0  0  0  0
  -21.3333  -38.3515   -6.4938 C   0  0  0  0  0  0  0  0  0  0  0  0
  -21.7456  -40.5932  -10.0474 C   0  0  0  0  0  0  0  0  0  0  0  0
  -20.6392  -40.2804  -11.0330 C   0  0  0  0  0  0  0  0  0  0  0  0
  -21.7617  -42.0700   -9.8254 C   0  0  0  0  0  0  0  0  0  0  0  0
  -17.5454  -40.6998   -9.7667 C   0  0  1  0  0  0  0  0  0  0  0  0
  -16.8715  -40.4232  -11.0109 N   0  0  0  0  0  0  0  0  0  0  0  0
  -17.0865  -42.0412   -9.2686 C   0  0  0  0  0  0  0  0  0  0  0  0
  -16.9665  -43.0270  -10.3790 C   0  0  0  0  0  0  0  0  0  0  0  0
  -15.9157  -43.3951  -11.1542 C   0  0  0  0  0  0  0  0  0  0  0  0
  -16.1143  -44.3330  -12.1566 C   0  0  0  0  0  0  0  0  0  0  0  0
  -17.3839  -44.8820  -12.3489 C   0  0  0  0  0  0  0  0  0  0  0  0
  -18.4855  -44.5422  -11.5873 C   0  0  0  0  0  0  0  0  0  0  0  0
  -18.2317  -43.6142  -10.6183 C   0  0  0  0  0  0  0  0  0  0  0  0
  -15.1903  -44.8405  -13.0533 O   0  0  0  0  0  0  0  0  0  0  0  0
  -14.3638  -44.3677  -14.0426 C   0  0  0  0  0  0  0  0  0  0  0  0
  -13.0655  -43.8683  -13.4798 C   0  0  0  0  0  0  0  0  0  0  0  0
  -12.5730  -42.6210  -14.1665 C   0  0  0  0  0  0  0  0  0  0  0  0
  -11.9237  -41.7421  -13.1420 C   0  0  0  0  0  0  0  0  0  0  0  0
  -12.4890  -40.4071  -13.1167 N   0  0  0  0  0  0  0  0  0  0  0  0
  1  2  1  0
  2  3  1  0
  3  4  1  0
  4  5  2  0
  5  6  1  0
  6  7  2  0
  7  8  1  0
  8  9  2  0
  8 10  1  0
 10 11  2  0
 10 12  1  0
 12 13  1  0
 13 14  1  6
 14 15  1  0
 15 16  1  0
 16 17  1  0
 17 18  1  0
 16 19  1  0
 19 20  2  0
 20 21  1  0
 21 22  2  0
 22 23  1  0
 23 24  2  0
 21 25  1  0
 25 26  1  0
 25 27  1  0
 13 28  1  0
 28 29  1  6
 28 30  1  0
 30 31  1  0
 31 32  1  0
 32 33  2  0
 33 34  1  0
 34 35  2  0
 35 36  1  0
 33 37  1  0
 37 38  1  0
 38 39  1  0
 39 40  1  0
 40 41  1  0
 41 42  1  0
  9  4  1  0
 18 16  1  0
 24 19  1  0
 36 31  2  0
 42  6  1  0
M  END
$$$$
