
     RDKit          3D

 42 46  0  0  0  0  0  0  0  0999 V2000
  -19.6320  -36.6010  -13.7203 C   0  0  0  0  0  0  0  0  0  0  0  0
  -18.5283  -35.7956  -13.4556 O   0  0  0  0  0  0  0  0  0  0  0  0
  -18.4344  -35.4975  -12.0800 C   0  0  0  0  0  0  0  0  0  0  0  0
  -17.3108  -36.2587  -11.4678 C   0  0  0  0  0  0  0  0  0  0  0  0
  -16.0583  -36.2801  -11.9967 C   0  0  0  0  0  0  0  0  0  0  0  0
  -14.9645  -36.9937  -11.4248 C   0  0  0  0  0  0  0  0  0  0  0  0
  -15.1608  -37.7150  -10.2642 C   0  0  0  0  0  0  0  0  0  0  0  0
  -16.4354  -37.7162   -9.6964 C   0  0  0  0  0  0  0  0  0  0  0  0
  -17.4777  -36.9874  -10.3123 C   0  0  0  0  0  0  0  0  0  0  0  0
  -16.9563  -38.4051   -8.5003 C   0  0  0  0  0  0  0  0  0  0  0  0
  -17.7604  -37.6357   -7.7867 O   0  0  0  0  0  0  0  0  0  0  0  0
  -16.7835  -39.6401   -7.9940 O   0  0  0  0  0  0  0  0  0  0  0  0
  -16.8392  -40.9447   -8.2861 C   0  0  1  0  0  0  0  0  0  0  0  0
  -18.1320  -41.4554   -8.9270 C   0  0  0  0  0  0  0  0  0  0  0  0
  -18.9716  -42.1192   -7.9911 N   0  0  0  0  0  0  0  0  0  0  0  0
  -20.0930  -41.2843   -7.6090 C   0  0  0  0  0  0  0  0  0  0  0  0
  -21.4348  -41.8107   -8.0501 C   0  0  0  0  0  0  0  0  0  0  0  0
  -21.0782  -41.7320   -6.5929 C   0  0  0  0  0  0  0  0  0  0  0  0
  -19.8834  -39.8138   -7.6416 C   0  0  0  0  0  0  0  0  0  0  0  0
  -20.7954  -38.9612   -8.2103 C   0  0  0  0  0  0  0  0  0  0  0  0
  -20.6206  -37.5866   -8.2491 C   0  0  0  0  0  0  0  0  0  0  0  0
  -19.4865  -37.0543   -7.6963 C   0  0  0  0  0  0  0  0  0  0  0  0
  -18.5436  -37.8858   -7.1135 C   0  0  0  0  0  0  0  0  0  0  0  0
  -18.7513  -39.2396   -7.0932 C   0  0  0  0  0  0  0  0  0  0  0  0
  -21.6395  -36.7295   -8.8767 C   0  0  0  0  0  0  0  0  0  0  0  0
  -21.7759  -36.9902  -10.3623 C   0  0  0  0  0  0  0  0  0  0  0  0
  -22.9919  -36.8667   -8.2583 C   0  0  0  0  0  0  0  0  0  0  0  0
  -15.7312  -41.6027   -9.0362 C   0  0  1  0  0  0  0  0  0  0  0  0
  -15.5228  -40.9335  -10.2962 N   0  0  0  0  0  0  0  0  0  0  0  0
  -14.4582  -41.5219   -8.2419 C   0  0  0  0  0  0  0  0  0  0  0  0
  -13.2606  -41.7360   -9.1016 C   0  0  0  0  0  0  0  0  0  0  0  0
  -12.4460  -40.8683   -9.7527 C   0  0  0  0  0  0  0  0  0  0  0  0
  -11.4081  -41.3691  -10.5247 C   0  0  0  0  0  0  0  0  0  0  0  0
  -11.2177  -42.7494  -10.6166 C   0  0  0  0  0  0  0  0  0  0  0  0
  -12.0176  -43.6745   -9.9735 C   0  0  0  0  0  0  0  0  0  0  0  0
  -13.0231  -43.1251   -9.2307 C   0  0  0  0  0  0  0  0  0  0  0  0
  -10.4730  -40.6677  -11.2658 O   0  0  0  0  0  0  0  0  0  0  0  0
  -10.4598  -39.7854  -12.3179 C   0  0  0  0  0  0  0  0  0  0  0  0
  -10.6771  -38.3753  -11.8533 C   0  0  0  0  0  0  0  0  0  0  0  0
  -11.5483  -37.5797  -12.7903 C   0  0  0  0  0  0  0  0  0  0  0  0
  -12.4068  -36.6630  -11.9741 C   0  0  0  0  0  0  0  0  0  0  0  0
  -13.8194  -36.8243  -12.2591 N   0  0  0  0  0  0  0  0  0  0  0  0
  1  2  1  0
  2  3  1  0
  3  4  1  0
  4  5  2  0
  5  6  1  0
  6  7  2  0
  7  8  1  0
  8  9  2  0
  8 10  1  0
 10 11  2  0
 10 12  1  0
 12 13  1  0
 13 14  1  6
 14 15  1  0
 15 16  1  0
 16 17  1  0
 17 18  1  0
 16 19  1  0
 19 20  2  0
 20 21  1  0
 21 22  2  0
 22 23  1  0
 23 24  2  0
 21 25  1  0
 25 26  1  0
 25 27  1  0
 13 28  1  0
 28 29  1  6
 28 30  1  0
 30 31  1  0
 31 32  1  0
 32 33  2  0
 33 34  1  0
 34 35  2  0
 35 36  1  0
 33 37  1  0
 37 38  1  0
 38 39  1  0
 39 40  1  0
 40 41  1  0
 41 42  1  0
  9  4  1  0
 18 16  1  0
 24 19  1  0
 36 31  2  0
 42  6  1  0
M  END
$$$$
