
     RDKit          3D

 42 46  0  0  0  0  0  0  0  0999 V2000
  -10.3170  -42.1238   -6.6008 C   0  0  0  0  0  0  0  0  0  0  0  0
  -11.5533  -42.4712   -7.1369 O   0  0  0  0  0  0  0  0  0  0  0  0
  -11.4590  -42.7018   -8.5254 C   0  0  0  0  0  0  0  0  0  0  0  0
  -12.4585  -41.8701   -9.2506 C   0  0  0  0  0  0  0  0  0  0  0  0
  -12.1086  -40.8618  -10.0932 C   0  0  0  0  0  0  0  0  0  0  0  0
  -13.0461  -40.0575  -10.8051 C   0  0  0  0  0  0  0  0  0  0  0  0
  -14.3970  -40.2948  -10.6481 C   0  0  0  0  0  0  0  0  0  0  0  0
  -14.7905  -41.3210   -9.7884 C   0  0  0  0  0  0  0  0  0  0  0  0
  -13.8111  -42.0829   -9.1122 C   0  0  0  0  0  0  0  0  0  0  0  0
  -16.1342  -41.7857   -9.3949 C   0  0  0  0  0  0  0  0  0  0  0  0
  -16.2158  -43.1041   -9.3437 O   0  0  0  0  0  0  0  0  0  0  0  0
  -17.2786  -41.1506   -9.0806 O   0  0  0  0  0  0  0  0  0  0  0  0
  -17.8081  -40.2021   -8.2993 C   0  0  1  0  0  0  0  0  0  0  0  0
  -17.5255  -40.3049   -6.7985 C   0  0  0  0  0  0  0  0  0  0  0  0
  -18.0671  -41.4893   -6.2282 N   0  0  0  0  0  0  0  0  0  0  0  0
  -19.2568  -41.9159   -6.9376 C   0  0  0  0  0  0  0  0  0  0  0  0
  -19.1546  -43.2912   -7.5459 C   0  0  0  0  0  0  0  0  0  0  0  0
  -20.1115  -43.0143   -6.4214 C   0  0  0  0  0  0  0  0  0  0  0  0
  -19.9995  -40.8778   -7.6979 C   0  0  0  0  0  0  0  0  0  0  0  0
  -20.4694  -39.7354   -7.1011 C   0  0  0  0  0  0  0  0  0  0  0  0
  -21.1621  -38.7536   -7.7924 C   0  0  0  0  0  0  0  0  0  0  0  0
  -21.3894  -38.9311   -9.1310 C   0  0  0  0  0  0  0  0  0  0  0  0
  -20.9293  -40.0731   -9.7665 C   0  0  0  0  0  0  0  0  0  0  0  0
  -20.2477  -41.0214   -9.0507 C   0  0  0  0  0  0  0  0  0  0  0  0
  -21.6397  -37.5519   -7.0890 C   0  0  0  0  0  0  0  0  0  0  0  0
  -21.7172  -36.3441   -7.9993 C   0  0  0  0  0  0  0  0  0  0  0  0
  -22.9762  -37.7327   -6.4476 C   0  0  0  0  0  0  0  0  0  0  0  0
  -17.6471  -38.7598   -8.6411 C   0  0  1  0  0  0  0  0  0  0  0  0
  -16.2473  -38.4320   -8.7515 N   0  0  0  0  0  0  0  0  0  0  0  0
  -18.3055  -38.4709   -9.9606 C   0  0  0  0  0  0  0  0  0  0  0  0
  -17.7993  -37.2049  -10.5608 C   0  0  0  0  0  0  0  0  0  0  0  0
  -16.8049  -36.9582  -11.4501 C   0  0  0  0  0  0  0  0  0  0  0  0
  -16.5301  -35.6460  -11.8060 C   0  0  0  0  0  0  0  0  0  0  0  0
  -17.2784  -34.6067  -11.2490 C   0  0  0  0  0  0  0  0  0  0  0  0
  -18.3008  -34.8043  -10.3408 C   0  0  0  0  0  0  0  0  0  0  0  0
  -18.5251  -36.1140  -10.0263 C   0  0  0  0  0  0  0  0  0  0  0  0
  -15.5672  -35.1775  -12.6829 O   0  0  0  0  0  0  0  0  0  0  0  0
  -14.1998  -35.2042  -12.8045 C   0  0  0  0  0  0  0  0  0  0  0  0
  -13.7333  -36.4657  -13.4699 C   0  0  0  0  0  0  0  0  0  0  0  0
  -12.4645  -37.0092  -12.8661 C   0  0  0  0  0  0  0  0  0  0  0  0
  -12.5393  -38.5052  -12.8754 C   0  0  0  0  0  0  0  0  0  0  0  0
  -12.3319  -39.0800  -11.5605 N   0  0  0  0  0  0  0  0  0  0  0  0
  1  2  1  0
  2  3  1  0
  3  4  1  0
  4  5  2  0
  5  6  1  0
  6  7  2  0
  7  8  1  0
  8  9  2  0
  8 10  1  0
 10 11  2  0
 10 12  1  0
 12 13  1  0
 13 14  1  1
 14 15  1  0
 15 16  1  0
 16 17  1  0
 17 18  1  0
 16 19  1  0
 19 20  2  0
 20 21  1  0
 21 22  2  0
 22 23  1  0
 23 24  2  0
 21 25  1  0
 25 26  1  0
 25 27  1  0
 13 28  1  0
 28 29  1  6
 28 30  1  0
 30 31  1  0
 31 32  1  0
 32 33  2  0
 33 34  1  0
 34 35  2  0
 35 36  1  0
 33 37  1  0
 37 38  1  0
 38 39  1  0
 39 40  1  0
 40 41  1  0
 41 42  1  0
  9  4  1  0
 18 16  1  0
 24 19  1  0
 36 31  2  0
 42  6  1  0
M  END
$$$$
