
     RDKit          3D

 42 46  0  0  0  0  0  0  0  0999 V2000
  -18.4960  -39.2963  -14.4355 C   0  0  0  0  0  0  0  0  0  0  0  0
  -19.4382  -40.3125  -14.5630 O   0  0  0  0  0  0  0  0  0  0  0  0
  -20.4542  -40.1890  -13.5922 C   0  0  0  0  0  0  0  0  0  0  0  0
  -20.0326  -40.8469  -12.3249 C   0  0  0  0  0  0  0  0  0  0  0  0
  -20.7542  -41.8336  -11.7293 C   0  0  0  0  0  0  0  0  0  0  0  0
  -20.3676  -42.4846  -10.5212 C   0  0  0  0  0  0  0  0  0  0  0  0
  -19.1943  -42.1102   -9.8973 C   0  0  0  0  0  0  0  0  0  0  0  0
  -18.4309  -41.0986  -10.4810 C   0  0  0  0  0  0  0  0  0  0  0  0
  -18.8692  -40.4933  -11.6803 C   0  0  0  0  0  0  0  0  0  0  0  0
  -17.1709  -40.4684  -10.0432 C   0  0  0  0  0  0  0  0  0  0  0  0
  -16.3344  -40.2660  -11.0466 O   0  0  0  0  0  0  0  0  0  0  0  0
  -16.7052  -40.0620   -8.8475 O   0  0  0  0  0  0  0  0  0  0  0  0
  -16.9917  -39.3180   -7.7729 C   0  0  1  0  0  0  0  0  0  0  0  0
  -17.4214  -37.8712   -8.0279 C   0  0  0  0  0  0  0  0  0  0  0  0
  -16.3162  -37.0229   -8.3113 N   0  0  0  0  0  0  0  0  0  0  0  0
  -16.0232  -37.0006   -9.7305 C   0  0  0  0  0  0  0  0  0  0  0  0
  -14.7976  -36.2031  -10.0967 C   0  0  0  0  0  0  0  0  0  0  0  0
  -14.8326  -37.6932  -10.2842 C   0  0  0  0  0  0  0  0  0  0  0  0
  -17.1815  -36.9524  -10.6596 C   0  0  0  0  0  0  0  0  0  0  0  0
  -18.1822  -36.0233  -10.5273 C   0  0  0  0  0  0  0  0  0  0  0  0
  -19.2699  -35.9592  -11.3844 C   0  0  0  0  0  0  0  0  0  0  0  0
  -19.3513  -36.8642  -12.4088 C   0  0  0  0  0  0  0  0  0  0  0  0
  -18.3585  -37.8169  -12.5723 C   0  0  0  0  0  0  0  0  0  0  0  0
  -17.2980  -37.8488  -11.7060 C   0  0  0  0  0  0  0  0  0  0  0  0
  -20.3094  -34.9365  -11.1839 C   0  0  0  0  0  0  0  0  0  0  0  0
  -20.6390  -34.7292   -9.7204 C   0  0  0  0  0  0  0  0  0  0  0  0
  -19.9555  -33.6091  -11.7695 C   0  0  0  0  0  0  0  0  0  0  0  0
  -17.9121  -39.8309   -6.7180 C   0  0  1  0  0  0  0  0  0  0  0  0
  -19.1856  -40.1760   -7.2993 N   0  0  0  0  0  0  0  0  0  0  0  0
  -17.3301  -41.0650   -6.0883 C   0  0  0  0  0  0  0  0  0  0  0  0
  -18.3706  -41.8631   -5.3816 C   0  0  0  0  0  0  0  0  0  0  0  0
  -19.1384  -42.9075   -5.7819 C   0  0  0  0  0  0  0  0  0  0  0  0
  -20.0684  -43.4368   -4.8994 C   0  0  0  0  0  0  0  0  0  0  0  0
  -20.1968  -42.8917   -3.6201 C   0  0  0  0  0  0  0  0  0  0  0  0
  -19.4396  -41.8299   -3.1637 C   0  0  0  0  0  0  0  0  0  0  0  0
  -18.5433  -41.3488   -4.0746 C   0  0  0  0  0  0  0  0  0  0  0  0
  -20.9451  -44.4881   -5.1038 O   0  0  0  0  0  0  0  0  0  0  0  0
  -21.9811  -44.8019   -5.9485 C   0  0  0  0  0  0  0  0  0  0  0  0
  -21.4803  -45.3895   -7.2352 C   0  0  0  0  0  0  0  0  0  0  0  0
  -22.2624  -44.9204   -8.4344 C   0  0  0  0  0  0  0  0  0  0  0  0
  -21.3150  -44.7596   -9.5835 C   0  0  0  0  0  0  0  0  0  0  0  0
  -21.3725  -43.4346  -10.1697 N   0  0  0  0  0  0  0  0  0  0  0  0
  1  2  1  0
  2  3  1  0
  3  4  1  0
  4  5  2  0
  5  6  1  0
  6  7  2  0
  7  8  1  0
  8  9  2  0
  8 10  1  0
 10 11  2  0
 10 12  1  0
 12 13  1  0
 13 14  1  6
 14 15  1  0
 15 16  1  0
 16 17  1  0
 17 18  1  0
 16 19  1  0
 19 20  2  0
 20 21  1  0
 21 22  2  0
 22 23  1  0
 23 24  2  0
 21 25  1  0
 25 26  1  0
 25 27  1  0
 13 28  1  0
 28 29  1  6
 28 30  1  0
 30 31  1  0
 31 32  1  0
 32 33  2  0
 33 34  1  0
 34 35  2  0
 35 36  1  0
 33 37  1  0
 37 38  1  0
 38 39  1  0
 39 40  1  0
 40 41  1  0
 41 42  1  0
  9  4  1  0
 18 16  1  0
 24 19  1  0
 36 31  2  0
 42  6  1  0
M  END
$$$$
