
     RDKit          3D

 42 46  0  0  0  0  0  0  0  0999 V2000
  -11.4710  -33.7250  -10.6660 C   0  0  0  0  0  0  0  0  0  0  0  0
  -11.6209  -34.5257  -11.7944 O   0  0  0  0  0  0  0  0  0  0  0  0
  -12.9378  -35.0214  -11.8950 C   0  0  0  0  0  0  0  0  0  0  0  0
  -12.9591  -36.4796  -11.5954 C   0  0  0  0  0  0  0  0  0  0  0  0
  -12.4765  -37.4172  -12.4539 C   0  0  0  0  0  0  0  0  0  0  0  0
  -12.4778  -38.8176  -12.1864 C   0  0  0  0  0  0  0  0  0  0  0  0
  -12.9944  -39.2771  -10.9914 C   0  0  0  0  0  0  0  0  0  0  0  0
  -13.5003  -38.3412  -10.0886 C   0  0  0  0  0  0  0  0  0  0  0  0
  -13.4691  -36.9662  -10.4134 C   0  0  0  0  0  0  0  0  0  0  0  0
  -14.1361  -38.5213   -8.7696 C   0  0  0  0  0  0  0  0  0  0  0  0
  -13.7286  -37.6245   -7.8879 O   0  0  0  0  0  0  0  0  0  0  0  0
  -15.0348  -39.3993   -8.2868 O   0  0  0  0  0  0  0  0  0  0  0  0
  -16.2389  -39.9414   -8.5029 C   0  0  1  0  0  0  0  0  0  0  0  0
  -17.4016  -38.9736   -8.7352 C   0  0  0  0  0  0  0  0  0  0  0  0
  -17.8782  -38.4031   -7.5231 N   0  0  0  0  0  0  0  0  0  0  0  0
  -19.0550  -37.5894   -7.7542 C   0  0  0  0  0  0  0  0  0  0  0  0
  -19.0272  -36.2507   -7.0619 C   0  0  0  0  0  0  0  0  0  0  0  0
  -18.9872  -36.3449   -8.5607 C   0  0  0  0  0  0  0  0  0  0  0  0
  -20.3594  -38.2955   -7.8400 C   0  0  0  0  0  0  0  0  0  0  0  0
  -20.6720  -39.3489   -7.0186 C   0  0  0  0  0  0  0  0  0  0  0  0
  -21.8836  -40.0196   -7.0803 C   0  0  0  0  0  0  0  0  0  0  0  0
  -22.8107  -39.6145   -8.0030 C   0  0  0  0  0  0  0  0  0  0  0  0
  -22.5287  -38.5540   -8.8491 C   0  0  0  0  0  0  0  0  0  0  0  0
  -21.3207  -37.9148   -8.7582 C   0  0  0  0  0  0  0  0  0  0  0  0
  -22.1532  -41.1436   -6.1689 C   0  0  0  0  0  0  0  0  0  0  0  0
  -23.1090  -40.7666   -5.0563 C   0  0  0  0  0  0  0  0  0  0  0  0
  -22.7020  -42.3484   -6.8600 C   0  0  0  0  0  0  0  0  0  0  0  0
  -16.4127  -41.0279   -9.5092 C   0  0  1  0  0  0  0  0  0  0  0  0
  -15.9526  -40.5823  -10.8009 N   0  0  0  0  0  0  0  0  0  0  0  0
  -15.6045  -42.2296   -9.1083 C   0  0  0  0  0  0  0  0  0  0  0  0
  -15.3712  -43.1434  -10.2614 C   0  0  0  0  0  0  0  0  0  0  0  0
  -14.3482  -43.2417  -11.1469 C   0  0  0  0  0  0  0  0  0  0  0  0
  -14.4231  -44.1858  -12.1603 C   0  0  0  0  0  0  0  0  0  0  0  0
  -15.5419  -45.0166  -12.2507 C   0  0  0  0  0  0  0  0  0  0  0  0
  -16.6089  -44.9576  -11.3749 C   0  0  0  0  0  0  0  0  0  0  0  0
  -16.4816  -44.0096  -10.4003 C   0  0  0  0  0  0  0  0  0  0  0  0
  -13.5023  -44.4478  -13.1599 O   0  0  0  0  0  0  0  0  0  0  0  0
  -12.9146  -43.7792  -14.2053 C   0  0  0  0  0  0  0  0  0  0  0  0
  -11.7186  -42.9950  -13.7510 C   0  0  0  0  0  0  0  0  0  0  0  0
  -11.6041  -41.6571  -14.4342 C   0  0  0  0  0  0  0  0  0  0  0  0
  -11.0773  -40.6641  -13.4442 C   0  0  0  0  0  0  0  0  0  0  0  0
  -11.9335  -39.5010  -13.3146 N   0  0  0  0  0  0  0  0  0  0  0  0
  1  2  1  0
  2  3  1  0
  3  4  1  0
  4  5  2  0
  5  6  1  0
  6  7  2  0
  7  8  1  0
  8  9  2  0
  8 10  1  0
 10 11  2  0
 10 12  1  0
 12 13  1  0
 13 14  1  6
 14 15  1  0
 15 16  1  0
 16 17  1  0
 17 18  1  0
 16 19  1  0
 19 20  2  0
 20 21  1  0
 21 22  2  0
 22 23  1  0
 23 24  2  0
 21 25  1  0
 25 26  1  0
 25 27  1  0
 13 28  1  0
 28 29  1  6
 28 30  1  0
 30 31  1  0
 31 32  1  0
 32 33  2  0
 33 34  1  0
 34 35  2  0
 35 36  1  0
 33 37  1  0
 37 38  1  0
 38 39  1  0
 39 40  1  0
 40 41  1  0
 41 42  1  0
  9  4  1  0
 18 16  1  0
 24 19  1  0
 36 31  2  0
 42  6  1  0
M  END
$$$$
