
     RDKit          3D

 42 46  0  0  0  0  0  0  0  0999 V2000
  -10.7106  -37.0693  -12.3828 C   0  0  0  0  0  0  0  0  0  0  0  0
  -11.3958  -38.0917  -11.7333 O   0  0  0  0  0  0  0  0  0  0  0  0
  -12.7044  -38.2300  -12.2415 C   0  0  0  0  0  0  0  0  0  0  0  0
  -13.4066  -39.3450  -11.5484 C   0  0  0  0  0  0  0  0  0  0  0  0
  -13.4334  -40.6154  -12.0324 C   0  0  0  0  0  0  0  0  0  0  0  0
  -14.0910  -41.7012  -11.3834 C   0  0  0  0  0  0  0  0  0  0  0  0
  -14.7482  -41.4774  -10.1901 C   0  0  0  0  0  0  0  0  0  0  0  0
  -14.7422  -40.1840   -9.6666 C   0  0  0  0  0  0  0  0  0  0  0  0
  -14.0709  -39.1510  -10.3588 C   0  0  0  0  0  0  0  0  0  0  0  0
  -15.3714  -39.6341   -8.4508 C   0  0  0  0  0  0  0  0  0  0  0  0
  -14.5785  -38.7919   -7.8108 O   0  0  0  0  0  0  0  0  0  0  0  0
  -16.5717  -39.8112   -7.8681 O   0  0  0  0  0  0  0  0  0  0  0  0
  -17.8918  -39.7892   -8.0856 C   0  0  1  0  0  0  0  0  0  0  0  0
  -18.4641  -38.5290   -8.7391 C   0  0  0  0  0  0  0  0  0  0  0  0
  -19.2318  -37.7515   -7.8293 N   0  0  0  0  0  0  0  0  0  0  0  0
  -18.4651  -36.6319   -7.3203 C   0  0  0  0  0  0  0  0  0  0  0  0
  -19.2320  -35.7300   -6.3873 C   0  0  0  0  0  0  0  0  0  0  0  0
  -18.0752  -36.5495   -5.8903 C   0  0  0  0  0  0  0  0  0  0  0  0
  -17.4939  -35.9990   -8.2496 C   0  0  0  0  0  0  0  0  0  0  0  0
  -17.7517  -34.8010   -8.8664 C   0  0  0  0  0  0  0  0  0  0  0  0
  -16.8587  -34.1922   -9.7345 C   0  0  0  0  0  0  0  0  0  0  0  0
  -15.6656  -34.8139   -9.9898 C   0  0  0  0  0  0  0  0  0  0  0  0
  -15.3720  -36.0252   -9.3844 C   0  0  0  0  0  0  0  0  0  0  0  0
  -16.2789  -36.5962   -8.5314 C   0  0  0  0  0  0  0  0  0  0  0  0
  -17.2000  -32.9058  -10.3635 C   0  0  0  0  0  0  0  0  0  0  0  0
  -18.0797  -33.0770  -11.5843 C   0  0  0  0  0  0  0  0  0  0  0  0
  -17.8797  -31.9541   -9.4348 C   0  0  0  0  0  0  0  0  0  0  0  0
  -18.5695  -40.9344   -8.7582 C   0  0  1  0  0  0  0  0  0  0  0  0
  -17.9698  -41.1747  -10.0472 N   0  0  0  0  0  0  0  0  0  0  0  0
  -18.4179  -42.1772   -7.9274 C   0  0  0  0  0  0  0  0  0  0  0  0
  -18.6570  -43.4078   -8.7322 C   0  0  0  0  0  0  0  0  0  0  0  0
  -17.8121  -44.2289   -9.4047 C   0  0  0  0  0  0  0  0  0  0  0  0
  -18.3356  -45.3020  -10.1106 C   0  0  0  0  0  0  0  0  0  0  0  0
  -19.7149  -45.5203  -10.1156 C   0  0  0  0  0  0  0  0  0  0  0  0
  -20.6172  -44.7151   -9.4473 C   0  0  0  0  0  0  0  0  0  0  0  0
  -20.0462  -43.6746   -8.7722 C   0  0  0  0  0  0  0  0  0  0  0  0
  -17.6594  -46.2496  -10.8592 O   0  0  0  0  0  0  0  0  0  0  0  0
  -16.8390  -46.2837  -11.9597 C   0  0  0  0  0  0  0  0  0  0  0  0
  -15.4090  -46.0251  -11.5854 C   0  0  0  0  0  0  0  0  0  0  0  0
  -14.6862  -45.1730  -12.5960 C   0  0  0  0  0  0  0  0  0  0  0  0
  -13.7414  -44.2702  -11.8640 C   0  0  0  0  0  0  0  0  0  0  0  0
  -13.9469  -42.8715  -12.1868 N   0  0  0  0  0  0  0  0  0  0  0  0
  1  2  1  0
  2  3  1  0
  3  4  1  0
  4  5  2  0
  5  6  1  0
  6  7  2  0
  7  8  1  0
  8  9  2  0
  8 10  1  0
 10 11  2  0
 10 12  1  0
 12 13  1  0
 13 14  1  6
 14 15  1  0
 15 16  1  0
 16 17  1  0
 17 18  1  0
 16 19  1  0
 19 20  2  0
 20 21  1  0
 21 22  2  0
 22 23  1  0
 23 24  2  0
 21 25  1  0
 25 26  1  0
 25 27  1  0
 13 28  1  0
 28 29  1  6
 28 30  1  0
 30 31  1  0
 31 32  1  0
 32 33  2  0
 33 34  1  0
 34 35  2  0
 35 36  1  0
 33 37  1  0
 37 38  1  0
 38 39  1  0
 39 40  1  0
 40 41  1  0
 41 42  1  0
  9  4  1  0
 18 16  1  0
 24 19  1  0
 36 31  2  0
 42  6  1  0
M  END
$$$$
