
     RDKit          3D

 42 46  0  0  0  0  0  0  0  0999 V2000
  -11.5136  -34.0096  -13.1978 C   0  0  0  0  0  0  0  0  0  0  0  0
  -11.8430  -35.3604  -13.2577 O   0  0  0  0  0  0  0  0  0  0  0  0
  -11.8925  -35.9296  -11.9679 C   0  0  0  0  0  0  0  0  0  0  0  0
  -13.2283  -36.5431  -11.7312 C   0  0  0  0  0  0  0  0  0  0  0  0
  -14.3949  -35.8773  -11.9426 C   0  0  0  0  0  0  0  0  0  0  0  0
  -15.6854  -36.4453  -11.7316 C   0  0  0  0  0  0  0  0  0  0  0  0
  -15.7860  -37.7481  -11.2860 C   0  0  0  0  0  0  0  0  0  0  0  0
  -14.6075  -38.4592  -11.0566 C   0  0  0  0  0  0  0  0  0  0  0  0
  -13.3588  -37.8387  -11.2858 C   0  0  0  0  0  0  0  0  0  0  0  0
  -14.3918  -39.8302  -10.5566 C   0  0  0  0  0  0  0  0  0  0  0  0
  -13.4312  -40.4594  -11.2117 O   0  0  0  0  0  0  0  0  0  0  0  0
  -14.9644  -40.5617   -9.5826 O   0  0  0  0  0  0  0  0  0  0  0  0
  -15.2967  -40.5631   -8.2864 C   0  0  1  0  0  0  0  0  0  0  0  0
  -14.1901  -40.2136   -7.2883 C   0  0  0  0  0  0  0  0  0  0  0  0
  -13.6094  -41.3708   -6.7007 N   0  0  0  0  0  0  0  0  0  0  0  0
  -12.7205  -42.0400   -7.6294 C   0  0  0  0  0  0  0  0  0  0  0  0
  -11.4391  -41.2956   -7.9048 C   0  0  0  0  0  0  0  0  0  0  0  0
  -11.4260  -42.6129   -7.1826 C   0  0  0  0  0  0  0  0  0  0  0  0
  -13.3493  -42.7736   -8.7580 C   0  0  0  0  0  0  0  0  0  0  0  0
  -13.7613  -42.1360   -9.9007 C   0  0  0  0  0  0  0  0  0  0  0  0
  -14.3476  -42.8016  -10.9661 C   0  0  0  0  0  0  0  0  0  0  0  0
  -14.5252  -44.1563  -10.8748 C   0  0  0  0  0  0  0  0  0  0  0  0
  -14.1211  -44.8329   -9.7351 C   0  0  0  0  0  0  0  0  0  0  0  0
  -13.5445  -44.1415   -8.7028 C   0  0  0  0  0  0  0  0  0  0  0  0
  -14.7679  -42.0547  -12.1629 C   0  0  0  0  0  0  0  0  0  0  0  0
  -13.6421  -41.2312  -12.7529 C   0  0  0  0  0  0  0  0  0  0  0  0
  -15.3165  -42.9273  -13.2436 C   0  0  0  0  0  0  0  0  0  0  0  0
  -16.5096  -39.8365   -7.8129 C   0  0  1  0  0  0  0  0  0  0  0  0
  -16.4311  -38.4471   -8.1898 N   0  0  0  0  0  0  0  0  0  0  0  0
  -17.7383  -40.4286   -8.4435 C   0  0  0  0  0  0  0  0  0  0  0  0
  -18.8935  -39.4901   -8.3809 C   0  0  0  0  0  0  0  0  0  0  0  0
  -19.3637  -38.5720   -9.2621 C   0  0  0  0  0  0  0  0  0  0  0  0
  -20.4604  -37.7997   -8.9090 C   0  0  0  0  0  0  0  0  0  0  0  0
  -21.0610  -37.9802   -7.6613 C   0  0  0  0  0  0  0  0  0  0  0  0
  -20.6220  -38.9008   -6.7292 C   0  0  0  0  0  0  0  0  0  0  0  0
  -19.5395  -39.6305   -7.1297 C   0  0  0  0  0  0  0  0  0  0  0  0
  -21.0912  -36.8146   -9.6488 O   0  0  0  0  0  0  0  0  0  0  0  0
  -20.7733  -35.6059  -10.2175 C   0  0  0  0  0  0  0  0  0  0  0  0
  -20.1589  -35.7836  -11.5749 C   0  0  0  0  0  0  0  0  0  0  0  0
  -19.0341  -34.8163  -11.8376 C   0  0  0  0  0  0  0  0  0  0  0  0
  -17.9822  -35.5205  -12.6385 C   0  0  0  0  0  0  0  0  0  0  0  0
  -16.6742  -35.4566  -12.0158 N   0  0  0  0  0  0  0  0  0  0  0  0
  1  2  1  0
  2  3  1  0
  3  4  1  0
  4  5  2  0
  5  6  1  0
  6  7  2  0
  7  8  1  0
  8  9  2  0
  8 10  1  0
 10 11  2  0
 10 12  1  0
 12 13  1  0
 13 14  1  1
 14 15  1  0
 15 16  1  0
 16 17  1  0
 17 18  1  0
 16 19  1  0
 19 20  2  0
 20 21  1  0
 21 22  2  0
 22 23  1  0
 23 24  2  0
 21 25  1  0
 25 26  1  0
 25 27  1  0
 13 28  1  0
 28 29  1  6
 28 30  1  0
 30 31  1  0
 31 32  1  0
 32 33  2  0
 33 34  1  0
 34 35  2  0
 35 36  1  0
 33 37  1  0
 37 38  1  0
 38 39  1  0
 39 40  1  0
 40 41  1  0
 41 42  1  0
  9  4  1  0
 18 16  1  0
 24 19  1  0
 36 31  2  0
 42  6  1  0
M  END
$$$$
