
     RDKit          3D

 42 46  0  0  0  0  0  0  0  0999 V2000
  -11.3711  -43.6465   -7.8954 C   0  0  0  0  0  0  0  0  0  0  0  0
  -12.6778  -44.0806   -8.0977 O   0  0  0  0  0  0  0  0  0  0  0  0
  -12.9345  -44.3004   -9.4673 C   0  0  0  0  0  0  0  0  0  0  0  0
  -13.3728  -43.0333  -10.1147 C   0  0  0  0  0  0  0  0  0  0  0  0
  -12.5321  -42.2410  -10.8320 C   0  0  0  0  0  0  0  0  0  0  0  0
  -12.9295  -41.0286  -11.4681 C   0  0  0  0  0  0  0  0  0  0  0  0
  -14.2410  -40.6099  -11.3659 C   0  0  0  0  0  0  0  0  0  0  0  0
  -15.1297  -41.3988  -10.6345 C   0  0  0  0  0  0  0  0  0  0  0  0
  -14.6730  -42.5908  -10.0283 C   0  0  0  0  0  0  0  0  0  0  0  0
  -16.5584  -41.2037  -10.3226 C   0  0  0  0  0  0  0  0  0  0  0  0
  -17.2525  -42.3245  -10.4210 O   0  0  0  0  0  0  0  0  0  0  0  0
  -17.2899  -40.1329   -9.9624 O   0  0  0  0  0  0  0  0  0  0  0  0
  -17.3661  -39.1206   -9.0906 C   0  0  1  0  0  0  0  0  0  0  0  0
  -17.2717  -39.4783   -7.6054 C   0  0  0  0  0  0  0  0  0  0  0  0
  -18.3490  -40.3030   -7.1803 N   0  0  0  0  0  0  0  0  0  0  0  0
  -19.5415  -39.5187   -6.9283 C   0  0  0  0  0  0  0  0  0  0  0  0
  -20.1615  -39.7530   -5.5745 C   0  0  0  0  0  0  0  0  0  0  0  0
  -19.5492  -38.4262   -5.9233 C   0  0  0  0  0  0  0  0  0  0  0  0
  -20.4561  -39.2908   -8.0767 C   0  0  0  0  0  0  0  0  0  0  0  0
  -20.3054  -39.9518   -9.2693 C   0  0  0  0  0  0  0  0  0  0  0  0
  -21.1488  -39.7558  -10.3520 C   0  0  0  0  0  0  0  0  0  0  0  0
  -22.1784  -38.8617  -10.2273 C   0  0  0  0  0  0  0  0  0  0  0  0
  -22.3604  -38.1761   -9.0370 C   0  0  0  0  0  0  0  0  0  0  0  0
  -21.5072  -38.3965   -7.9884 C   0  0  0  0  0  0  0  0  0  0  0  0
  -20.9288  -40.4982  -11.6039 C   0  0  0  0  0  0  0  0  0  0  0  0
  -21.5804  -41.8651  -11.5853 C   0  0  0  0  0  0  0  0  0  0  0  0
  -21.4133  -39.7727  -12.8160 C   0  0  0  0  0  0  0  0  0  0  0  0
  -16.5233  -37.9031   -9.2655 C   0  0  1  0  0  0  0  0  0  0  0  0
  -15.1297  -38.2699   -9.3103 N   0  0  0  0  0  0  0  0  0  0  0  0
  -16.8741  -37.2203  -10.5573 C   0  0  0  0  0  0  0  0  0  0  0  0
  -15.7920  -36.2980  -11.0018 C   0  0  0  0  0  0  0  0  0  0  0  0
  -14.7380  -36.4741  -11.8376 C   0  0  0  0  0  0  0  0  0  0  0  0
  -13.8552  -35.4233  -12.0388 C   0  0  0  0  0  0  0  0  0  0  0  0
  -14.0655  -34.2078  -11.3842 C   0  0  0  0  0  0  0  0  0  0  0  0
  -15.1224  -33.9770  -10.5245 C   0  0  0  0  0  0  0  0  0  0  0  0
  -15.9567  -35.0459  -10.3632 C   0  0  0  0  0  0  0  0  0  0  0  0
  -12.7258  -35.3914  -12.8382 O   0  0  0  0  0  0  0  0  0  0  0  0
  -11.5261  -36.0523  -12.9345 C   0  0  0  0  0  0  0  0  0  0  0  0
  -11.6605  -37.3191  -13.7274 C   0  0  0  0  0  0  0  0  0  0  0  0
  -10.8413  -38.4506  -13.1629 C   0  0  0  0  0  0  0  0  0  0  0  0
  -11.6086  -39.7247  -13.3411 C   0  0  0  0  0  0  0  0  0  0  0  0
  -11.7887  -40.4437  -12.0948 N   0  0  0  0  0  0  0  0  0  0  0  0
  1  2  1  0
  2  3  1  0
  3  4  1  0
  4  5  2  0
  5  6  1  0
  6  7  2  0
  7  8  1  0
  8  9  2  0
  8 10  1  0
 10 11  2  0
 10 12  1  0
 12 13  1  0
 13 14  1  1
 14 15  1  0
 15 16  1  0
 16 17  1  0
 17 18  1  0
 16 19  1  0
 19 20  2  0
 20 21  1  0
 21 22  2  0
 22 23  1  0
 23 24  2  0
 21 25  1  0
 25 26  1  0
 25 27  1  0
 13 28  1  0
 28 29  1  6
 28 30  1  0
 30 31  1  0
 31 32  1  0
 32 33  2  0
 33 34  1  0
 34 35  2  0
 35 36  1  0
 33 37  1  0
 37 38  1  0
 38 39  1  0
 39 40  1  0
 40 41  1  0
 41 42  1  0
  9  4  1  0
 18 16  1  0
 24 19  1  0
 36 31  2  0
 42  6  1  0
M  END
$$$$
