
     RDKit          3D

 42 46  0  0  0  0  0  0  0  0999 V2000
  -13.1347  -33.1237  -11.7952 C   0  0  0  0  0  0  0  0  0  0  0  0
  -13.2373  -34.1385  -10.8484 O   0  0  0  0  0  0  0  0  0  0  0  0
  -14.4160  -34.8908  -11.0347 C   0  0  0  0  0  0  0  0  0  0  0  0
  -14.1104  -36.3461  -10.9612 C   0  0  0  0  0  0  0  0  0  0  0  0
  -13.5501  -37.0361  -11.9902 C   0  0  0  0  0  0  0  0  0  0  0  0
  -13.2402  -38.4268  -11.9411 C   0  0  0  0  0  0  0  0  0  0  0  0
  -13.5151  -39.1405  -10.7918 C   0  0  0  0  0  0  0  0  0  0  0  0
  -14.0927  -38.4630   -9.7174 C   0  0  0  0  0  0  0  0  0  0  0  0
  -14.3749  -37.0829   -9.8293 C   0  0  0  0  0  0  0  0  0  0  0  0
  -14.5256  -38.9484   -8.3932 C   0  0  0  0  0  0  0  0  0  0  0  0
  -14.2088  -38.1097   -7.4217 O   0  0  0  0  0  0  0  0  0  0  0  0
  -15.1693  -40.0549   -7.9774 O   0  0  0  0  0  0  0  0  0  0  0  0
  -16.2567  -40.8097   -8.1729 C   0  0  1  0  0  0  0  0  0  0  0  0
  -17.6087  -40.0922   -8.1566 C   0  0  0  0  0  0  0  0  0  0  0  0
  -17.5545  -38.8565   -7.4554 N   0  0  0  0  0  0  0  0  0  0  0  0
  -18.2185  -38.9536   -6.1708 C   0  0  0  0  0  0  0  0  0  0  0  0
  -17.5150  -39.8413   -5.1762 C   0  0  0  0  0  0  0  0  0  0  0  0
  -17.6232  -38.3606   -4.9470 C   0  0  0  0  0  0  0  0  0  0  0  0
  -19.7041  -38.9647   -6.1765 C   0  0  0  0  0  0  0  0  0  0  0  0
  -20.4306  -38.5574   -7.2666 C   0  0  0  0  0  0  0  0  0  0  0  0
  -21.8166  -38.5622   -7.2938 C   0  0  0  0  0  0  0  0  0  0  0  0
  -22.4924  -38.9915   -6.1829 C   0  0  0  0  0  0  0  0  0  0  0  0
  -21.7909  -39.4100   -5.0637 C   0  0  0  0  0  0  0  0  0  0  0  0
  -20.4213  -39.3920   -5.0741 C   0  0  0  0  0  0  0  0  0  0  0  0
  -22.5337  -38.1101   -8.4972 C   0  0  0  0  0  0  0  0  0  0  0  0
  -23.1608  -39.2586   -9.2596 C   0  0  0  0  0  0  0  0  0  0  0  0
  -23.6038  -37.1093   -8.2085 C   0  0  0  0  0  0  0  0  0  0  0  0
  -16.3222  -41.7651   -9.3157 C   0  0  1  0  0  0  0  0  0  0  0  0
  -16.1103  -41.0643  -10.5578 N   0  0  0  0  0  0  0  0  0  0  0  0
  -15.2492  -42.8074   -9.1722 C   0  0  0  0  0  0  0  0  0  0  0  0
  -14.9698  -43.4890  -10.4670 C   0  0  0  0  0  0  0  0  0  0  0  0
  -14.0551  -43.2471  -11.4392 C   0  0  0  0  0  0  0  0  0  0  0  0
  -14.0536  -44.0427  -12.5755 C   0  0  0  0  0  0  0  0  0  0  0  0
  -14.9859  -45.0751  -12.6985 C   0  0  0  0  0  0  0  0  0  0  0  0
  -15.9367  -45.3631  -11.7382 C   0  0  0  0  0  0  0  0  0  0  0  0
  -15.8924  -44.5473  -10.6440 C   0  0  0  0  0  0  0  0  0  0  0  0
  -13.2185  -43.9662  -13.6765 O   0  0  0  0  0  0  0  0  0  0  0  0
  -12.8993  -43.0546  -14.6524 C   0  0  0  0  0  0  0  0  0  0  0  0
  -11.8412  -42.0989  -14.1846 C   0  0  0  0  0  0  0  0  0  0  0  0
  -12.0756  -40.6893  -14.6621 C   0  0  0  0  0  0  0  0  0  0  0  0
  -11.6498  -39.7462  -13.5790 C   0  0  0  0  0  0  0  0  0  0  0  0
  -12.7015  -38.8219  -13.2020 N   0  0  0  0  0  0  0  0  0  0  0  0
  1  2  1  0
  2  3  1  0
  3  4  1  0
  4  5  2  0
  5  6  1  0
  6  7  2  0
  7  8  1  0
  8  9  2  0
  8 10  1  0
 10 11  2  0
 10 12  1  0
 12 13  1  0
 13 14  1  6
 14 15  1  0
 15 16  1  0
 16 17  1  0
 17 18  1  0
 16 19  1  0
 19 20  2  0
 20 21  1  0
 21 22  2  0
 22 23  1  0
 23 24  2  0
 21 25  1  0
 25 26  1  0
 25 27  1  0
 13 28  1  0
 28 29  1  6
 28 30  1  0
 30 31  1  0
 31 32  1  0
 32 33  2  0
 33 34  1  0
 34 35  2  0
 35 36  1  0
 33 37  1  0
 37 38  1  0
 38 39  1  0
 39 40  1  0
 40 41  1  0
 41 42  1  0
  9  4  1  0
 18 16  1  0
 24 19  1  0
 36 31  2  0
 42  6  1  0
M  END
$$$$
