
     RDKit          3D

 45 48  0  0  0  0  0  0  0  0999 V2000
  -15.8916  -33.7099  -12.7264 C   0  0  0  0  0  0  0  0  0  0  0  0
  -17.2021  -33.3121  -12.1098 C   0  0  0  0  0  0  0  0  0  0  0  0
  -16.9745  -32.1019  -11.2031 C   0  0  0  0  0  0  0  0  0  0  0  0
  -17.8011  -34.3773  -11.2653 C   0  0  0  0  0  0  0  0  0  0  0  0
  -17.1191  -34.8178  -10.1577 C   0  0  0  0  0  0  0  0  0  0  0  0
  -17.6345  -35.7977   -9.3386 C   0  0  0  0  0  0  0  0  0  0  0  0
  -16.8789  -36.2737   -8.1298 C   0  0  0  0  0  0  0  0  0  0  0  0
  -17.3064  -37.5923   -7.8140 N   0  0  0  0  0  0  0  0  0  0  0  0
  -17.3129  -38.5403   -8.8920 C   0  0  0  0  0  0  0  0  0  0  0  0
  -16.5445  -39.7703   -8.6731 C   0  0  1  0  0  0  0  0  0  0  0  0
  -15.6936  -39.7108   -7.5846 O   0  0  0  0  0  0  0  0  0  0  0  0
  -17.4253  -41.0172   -8.4732 C   0  0  2  0  0  0  0  0  0  0  0  0
  -18.7582  -40.7693   -9.0802 C   0  0  0  0  0  0  0  0  0  0  0  0
  -19.0624  -41.4689  -10.3511 C   0  0  2  0  0  0  0  0  0  0  0  0
  -19.4989  -40.4002  -11.3591 C   0  0  0  0  0  0  0  0  0  0  0  0
  -19.9159  -42.6629  -10.3571 C   0  0  0  0  0  0  0  0  0  0  0  0
  -19.3739  -43.9892  -10.1095 C   0  0  0  0  0  0  0  0  0  0  0  0
  -20.3315  -45.1181   -9.9113 C   0  0  0  0  0  0  0  0  0  0  0  0
  -21.3809  -45.2689  -10.9344 C   0  0  0  0  0  0  0  0  0  0  0  0
  -22.7966  -45.2160  -10.5206 C   0  0  0  0  0  0  0  0  0  0  0  0
  -23.1860  -44.7280   -9.2066 C   0  0  0  0  0  0  0  0  0  0  0  0
  -22.8248  -45.4175   -8.0079 N   0  0  0  0  0  0  0  0  0  0  0  0
  -22.5133  -44.7489   -6.7970 N   0  0  0  0  0  0  0  0  0  0  0  0
  -21.6548  -43.6452   -6.4910 C   0  0  0  0  0  0  0  0  0  0  0  0
  -20.3097  -43.3605   -6.6450 C   0  0  0  0  0  0  0  0  0  0  0  0
  -19.8498  -42.1235   -6.1788 C   0  0  0  0  0  0  0  0  0  0  0  0
  -20.7926  -41.2485   -5.5805 C   0  0  0  0  0  0  0  0  0  0  0  0
  -22.1116  -41.5422   -5.4356 C   0  0  0  0  0  0  0  0  0  0  0  0
  -23.0563  -40.5613   -4.7876 C   0  0  0  0  0  0  0  0  0  0  0  0
  -22.4812  -42.6976   -5.8843 N   0  0  0  0  0  0  0  0  0  0  0  0
  -18.5337  -41.4774   -6.1715 C   0  0  0  0  0  0  0  0  0  0  0  0
  -18.2402  -40.7974   -5.0818 O   0  0  0  0  0  0  0  0  0  0  0  0
  -17.4672  -41.4053   -7.0818 N   0  0  0  0  0  0  0  0  0  0  0  0
  -22.8082  -46.8399   -7.9605 C   0  0  0  0  0  0  0  0  0  0  0  0
  -22.4823  -47.5320   -9.0214 O   0  0  0  0  0  0  0  0  0  0  0  0
  -23.1125  -47.7063   -6.8484 C   0  0  0  0  0  0  0  0  0  0  0  0
  -24.2782  -48.4578   -6.7801 C   0  0  0  0  0  0  0  0  0  0  0  0
  -24.5373  -49.2374   -5.6811 C   0  0  0  0  0  0  0  0  0  0  0  0
  -23.6502  -49.3014   -4.6087 C   0  0  0  0  0  0  0  0  0  0  0  0
  -23.8734  -50.0533   -3.5186 F   0  0  0  0  0  0  0  0  0  0  0  0
  -22.4887  -48.5637   -4.6570 C   0  0  0  0  0  0  0  0  0  0  0  0
  -22.2482  -47.7980   -5.7510 C   0  0  0  0  0  0  0  0  0  0  0  0
  -18.8724  -36.3484   -9.6461 C   0  0  0  0  0  0  0  0  0  0  0  0
  -19.5657  -35.9118  -10.7584 C   0  0  0  0  0  0  0  0  0  0  0  0
  -19.0349  -34.9346  -11.5613 C   0  0  0  0  0  0  0  0  0  0  0  0
  1  2  1  0
  2  3  1  0
  2  4  1  0
  4  5  2  0
  5  6  1  0
  6  7  1  0
  7  8  1  0
  8  9  1  0
  9 10  1  0
 10 11  1  1
 10 12  1  0
 12 13  1  1
 13 14  1  0
 14 15  1  6
 14 16  1  0
 16 17  1  0
 17 18  1  0
 18 19  1  0
 19 20  1  0
 20 21  1  0
 21 22  1  0
 22 23  1  0
 23 24  1  0
 24 25  2  0
 25 26  1  0
 26 27  2  0
 27 28  1  0
 28 29  1  0
 28 30  2  0
 26 31  1  0
 31 32  2  0
 31 33  1  0
 22 34  1  0
 34 35  2  0
 34 36  1  0
 36 37  2  0
 37 38  1  0
 38 39  2  0
 39 40  1  0
 39 41  1  0
 41 42  2  0
  6 43  2  0
 43 44  1  0
 44 45  2  0
 30 24  1  0
 33 12  1  0
 42 36  1  0
 45  4  1  0
M  END
$$$$
