
     RDKit          3D

 45 48  0  0  0  0  0  0  0  0999 V2000
  -14.5608  -33.7202  -12.4128 C   0  0  0  0  0  0  0  0  0  0  0  0
  -13.9802  -34.4895  -11.2609 C   0  0  0  0  0  0  0  0  0  0  0  0
  -12.5113  -34.0976  -11.0952 C   0  0  0  0  0  0  0  0  0  0  0  0
  -14.0141  -35.9610  -11.4607 C   0  0  0  0  0  0  0  0  0  0  0  0
  -13.6440  -36.7868  -10.4278 C   0  0  0  0  0  0  0  0  0  0  0  0
  -13.6650  -38.1575  -10.5600 C   0  0  0  0  0  0  0  0  0  0  0  0
  -13.2563  -39.0519   -9.4236 C   0  0  0  0  0  0  0  0  0  0  0  0
  -14.4076  -39.7325   -8.9411 N   0  0  0  0  0  0  0  0  0  0  0  0
  -15.2463  -39.0075   -8.0290 C   0  0  0  0  0  0  0  0  0  0  0  0
  -15.8460  -39.7909   -6.9437 C   0  0  1  0  0  0  0  0  0  0  0  0
  -15.9062  -39.1183   -5.7369 O   0  0  0  0  0  0  0  0  0  0  0  0
  -17.2768  -40.2700   -7.2503 C   0  0  2  0  0  0  0  0  0  0  0  0
  -17.7453  -41.1351   -6.1374 C   0  0  0  0  0  0  0  0  0  0  0  0
  -18.7544  -40.5620   -5.2150 C   0  0  2  0  0  0  0  0  0  0  0  0
  -18.2034  -40.7177   -3.7934 C   0  0  0  0  0  0  0  0  0  0  0  0
  -20.1695  -40.9312   -5.3383 C   0  0  0  0  0  0  0  0  0  0  0  0
  -21.0608  -40.2405   -6.2564 C   0  0  0  0  0  0  0  0  0  0  0  0
  -22.4201  -40.8146   -6.4876 C   0  0  0  0  0  0  0  0  0  0  0  0
  -23.2072  -41.1297   -5.2827 C   0  0  0  0  0  0  0  0  0  0  0  0
  -23.6716  -42.5149   -5.0733 C   0  0  0  0  0  0  0  0  0  0  0  0
  -23.1329  -43.6218   -5.8485 C   0  0  0  0  0  0  0  0  0  0  0  0
  -23.3413  -43.7277   -7.2586 N   0  0  0  0  0  0  0  0  0  0  0  0
  -22.3690  -44.2565   -8.1448 N   0  0  0  0  0  0  0  0  0  0  0  0
  -20.9694  -44.0069   -8.3108 C   0  0  0  0  0  0  0  0  0  0  0  0
  -20.1830  -42.9020   -8.5844 C   0  0  0  0  0  0  0  0  0  0  0  0
  -18.8005  -43.0968   -8.6833 C   0  0  0  0  0  0  0  0  0  0  0  0
  -18.3015  -44.4117   -8.4976 C   0  0  0  0  0  0  0  0  0  0  0  0
  -19.0867  -45.4881   -8.2296 C   0  0  0  0  0  0  0  0  0  0  0  0
  -18.4847  -46.8585   -8.0450 C   0  0  0  0  0  0  0  0  0  0  0  0
  -20.3555  -45.2501   -8.1489 N   0  0  0  0  0  0  0  0  0  0  0  0
  -17.6738  -42.1959   -8.9449 C   0  0  0  0  0  0  0  0  0  0  0  0
  -16.7242  -42.6825   -9.7178 O   0  0  0  0  0  0  0  0  0  0  0  0
  -17.3490  -40.8867   -8.5552 N   0  0  0  0  0  0  0  0  0  0  0  0
  -24.5803  -43.3437   -7.8444 C   0  0  0  0  0  0  0  0  0  0  0  0
  -25.6223  -43.1080   -7.0898 O   0  0  0  0  0  0  0  0  0  0  0  0
  -24.8957  -43.1559   -9.2390 C   0  0  0  0  0  0  0  0  0  0  0  0
  -25.5716  -44.1084   -9.9902 C   0  0  0  0  0  0  0  0  0  0  0  0
  -25.8132  -43.8961  -11.3241 C   0  0  0  0  0  0  0  0  0  0  0  0
  -25.3939  -42.7313  -11.9633 C   0  0  0  0  0  0  0  0  0  0  0  0
  -25.6135  -42.4925  -13.2665 F   0  0  0  0  0  0  0  0  0  0  0  0
  -24.7222  -41.7744  -11.2361 C   0  0  0  0  0  0  0  0  0  0  0  0
  -24.4915  -42.0005   -9.9183 C   0  0  0  0  0  0  0  0  0  0  0  0
  -14.0705  -38.7100  -11.7685 C   0  0  0  0  0  0  0  0  0  0  0  0
  -14.4443  -37.8873  -12.8135 C   0  0  0  0  0  0  0  0  0  0  0  0
  -14.4165  -36.5245  -12.6612 C   0  0  0  0  0  0  0  0  0  0  0  0
  1  2  1  0
  2  3  1  0
  2  4  1  0
  4  5  2  0
  5  6  1  0
  6  7  1  0
  7  8  1  0
  8  9  1  0
  9 10  1  0
 10 11  1  1
 10 12  1  0
 12 13  1  1
 13 14  1  0
 14 15  1  1
 14 16  1  0
 16 17  1  0
 17 18  1  0
 18 19  1  0
 19 20  1  0
 20 21  1  0
 21 22  1  0
 22 23  1  0
 23 24  1  0
 24 25  2  0
 25 26  1  0
 26 27  2  0
 27 28  1  0
 28 29  1  0
 28 30  2  0
 26 31  1  0
 31 32  2  0
 31 33  1  0
 22 34  1  0
 34 35  2  0
 34 36  1  0
 36 37  2  0
 37 38  1  0
 38 39  2  0
 39 40  1  0
 39 41  1  0
 41 42  2  0
  6 43  2  0
 43 44  1  0
 44 45  2  0
 30 24  1  0
 33 12  1  0
 42 36  1  0
 45  4  1  0
M  END
$$$$
