
     RDKit          3D

 45 48  0  0  0  0  0  0  0  0999 V2000
  -15.1052  -34.1997  -12.4071 C   0  0  0  0  0  0  0  0  0  0  0  0
  -13.7034  -34.7003  -12.2070 C   0  0  0  0  0  0  0  0  0  0  0  0
  -12.8540  -34.2848  -13.4089 C   0  0  0  0  0  0  0  0  0  0  0  0
  -13.6166  -36.1799  -12.1083 C   0  0  0  0  0  0  0  0  0  0  0  0
  -13.2036  -36.7502  -10.9294 C   0  0  0  0  0  0  0  0  0  0  0  0
  -13.1133  -38.1168  -10.7846 C   0  0  0  0  0  0  0  0  0  0  0  0
  -12.6585  -38.7305   -9.4903 C   0  0  0  0  0  0  0  0  0  0  0  0
  -13.6639  -38.5209   -8.5073 N   0  0  0  0  0  0  0  0  0  0  0  0
  -14.8226  -39.3648   -8.5845 C   0  0  0  0  0  0  0  0  0  0  0  0
  -15.7890  -39.2344   -7.4887 C   0  0  1  0  0  0  0  0  0  0  0  0
  -16.2079  -37.9355   -7.2655 O   0  0  0  0  0  0  0  0  0  0  0  0
  -17.0618  -40.0772   -7.6889 C   0  0  2  0  0  0  0  0  0  0  0  0
  -18.1446  -39.5274   -6.8336 C   0  0  0  0  0  0  0  0  0  0  0  0
  -19.2290  -38.7798   -7.5137 C   0  0  2  0  0  0  0  0  0  0  0  0
  -19.3373  -37.4165   -6.8220 C   0  0  0  0  0  0  0  0  0  0  0  0
  -20.5284  -39.4154   -7.7619 C   0  0  0  0  0  0  0  0  0  0  0  0
  -20.7651  -40.2322   -8.9414 C   0  0  0  0  0  0  0  0  0  0  0  0
  -22.0307  -41.0222   -9.0113 C   0  0  0  0  0  0  0  0  0  0  0  0
  -23.2763  -40.2810   -8.7470 C   0  0  0  0  0  0  0  0  0  0  0  0
  -24.1508  -40.7219   -7.6430 C   0  0  0  0  0  0  0  0  0  0  0  0
  -23.6854  -41.6611   -6.6342 C   0  0  0  0  0  0  0  0  0  0  0  0
  -23.3531  -43.0130   -6.9578 N   0  0  0  0  0  0  0  0  0  0  0  0
  -22.3027  -43.7227   -6.3227 N   0  0  0  0  0  0  0  0  0  0  0  0
  -20.9383  -43.3920   -6.0432 C   0  0  0  0  0  0  0  0  0  0  0  0
  -19.8338  -43.0197   -6.7883 C   0  0  0  0  0  0  0  0  0  0  0  0
  -18.6340  -42.7940   -6.1037 C   0  0  0  0  0  0  0  0  0  0  0  0
  -18.6328  -42.9632   -4.6952 C   0  0  0  0  0  0  0  0  0  0  0  0
  -19.7263  -43.3299   -3.9763 C   0  0  0  0  0  0  0  0  0  0  0  0
  -19.6495  -43.4914   -2.4787 C   0  0  0  0  0  0  0  0  0  0  0  0
  -20.8070  -43.5247   -4.6597 N   0  0  0  0  0  0  0  0  0  0  0  0
  -17.2916  -42.3899   -6.5327 C   0  0  0  0  0  0  0  0  0  0  0  0
  -16.2932  -42.9897   -5.9168 O   0  0  0  0  0  0  0  0  0  0  0  0
  -16.7925  -41.4815   -7.4798 N   0  0  0  0  0  0  0  0  0  0  0  0
  -24.1093  -43.7407   -7.9191 C   0  0  0  0  0  0  0  0  0  0  0  0
  -23.5891  -44.7803   -8.5187 O   0  0  0  0  0  0  0  0  0  0  0  0
  -25.4578  -43.5014   -8.3709 C   0  0  0  0  0  0  0  0  0  0  0  0
  -26.5671  -43.7003   -7.5596 C   0  0  0  0  0  0  0  0  0  0  0  0
  -27.8316  -43.4942   -8.0510 C   0  0  0  0  0  0  0  0  0  0  0  0
  -28.0436  -43.0829   -9.3652 C   0  0  0  0  0  0  0  0  0  0  0  0
  -29.2671  -42.8728   -9.8774 F   0  0  0  0  0  0  0  0  0  0  0  0
  -26.9569  -42.8802  -10.1859 C   0  0  0  0  0  0  0  0  0  0  0  0
  -25.7136  -43.0888   -9.6839 C   0  0  0  0  0  0  0  0  0  0  0  0
  -13.4487  -38.9302  -11.8597 C   0  0  0  0  0  0  0  0  0  0  0  0
  -13.8650  -38.3656  -13.0498 C   0  0  0  0  0  0  0  0  0  0  0  0
  -13.9483  -37.0021  -13.1734 C   0  0  0  0  0  0  0  0  0  0  0  0
  1  2  1  0
  2  3  1  0
  2  4  1  0
  4  5  2  0
  5  6  1  0
  6  7  1  0
  7  8  1  0
  8  9  1  0
  9 10  1  0
 10 11  1  6
 10 12  1  0
 12 13  1  1
 13 14  1  0
 14 15  1  1
 14 16  1  0
 16 17  1  0
 17 18  1  0
 18 19  1  0
 19 20  1  0
 20 21  1  0
 21 22  1  0
 22 23  1  0
 23 24  1  0
 24 25  2  0
 25 26  1  0
 26 27  2  0
 27 28  1  0
 28 29  1  0
 28 30  2  0
 26 31  1  0
 31 32  2  0
 31 33  1  0
 22 34  1  0
 34 35  2  0
 34 36  1  0
 36 37  2  0
 37 38  1  0
 38 39  2  0
 39 40  1  0
 39 41  1  0
 41 42  2  0
  6 43  2  0
 43 44  1  0
 44 45  2  0
 30 24  1  0
 33 12  1  0
 42 36  1  0
 45  4  1  0
M  END
$$$$
