
     RDKit          3D

 45 48  0  0  0  0  0  0  0  0999 V2000
  -10.8804  -33.6710  -13.5367 C   0  0  0  0  0  0  0  0  0  0  0  0
  -10.9343  -34.7895  -12.5357 C   0  0  0  0  0  0  0  0  0  0  0  0
  -10.0911  -35.9560  -13.0523 C   0  0  0  0  0  0  0  0  0  0  0  0
  -12.3063  -35.3139  -12.3142 C   0  0  0  0  0  0  0  0  0  0  0  0
  -12.5756  -36.6297  -12.6004 C   0  0  0  0  0  0  0  0  0  0  0  0
  -13.8291  -37.1660  -12.4057 C   0  0  0  0  0  0  0  0  0  0  0  0
  -14.1134  -38.6070  -12.7239 C   0  0  0  0  0  0  0  0  0  0  0  0
  -14.6319  -39.2380  -11.5602 N   0  0  0  0  0  0  0  0  0  0  0  0
  -14.4077  -38.5656  -10.3118 C   0  0  0  0  0  0  0  0  0  0  0  0
  -15.5804  -37.9282   -9.7035 C   0  0  1  0  0  0  0  0  0  0  0  0
  -16.0797  -36.8653  -10.4337 O   0  0  0  0  0  0  0  0  0  0  0  0
  -16.7567  -38.8955   -9.4771 C   0  0  2  0  0  0  0  0  0  0  0  0
  -16.9709  -39.0619   -8.0167 C   0  0  0  0  0  0  0  0  0  0  0  0
  -18.1577  -38.3970   -7.4279 C   0  0  2  0  0  0  0  0  0  0  0  0
  -17.6593  -37.5409   -6.2585 C   0  0  0  0  0  0  0  0  0  0  0  0
  -19.3647  -39.1708   -7.1143 C   0  0  0  0  0  0  0  0  0  0  0  0
  -20.3856  -39.4312   -8.1165 C   0  0  0  0  0  0  0  0  0  0  0  0
  -21.4671  -40.4070   -7.7863 C   0  0  0  0  0  0  0  0  0  0  0  0
  -22.1672  -40.1946   -6.5074 C   0  0  0  0  0  0  0  0  0  0  0  0
  -22.1606  -41.2734   -5.5003 C   0  0  0  0  0  0  0  0  0  0  0  0
  -21.2494  -42.4029   -5.6032 C   0  0  0  0  0  0  0  0  0  0  0  0
  -21.3395  -43.3506   -6.6693 N   0  0  0  0  0  0  0  0  0  0  0  0
  -20.2037  -43.9719   -7.2475 N   0  0  0  0  0  0  0  0  0  0  0  0
  -18.9573  -43.4592   -7.7297 C   0  0  0  0  0  0  0  0  0  0  0  0
  -18.5648  -42.5358   -8.6822 C   0  0  0  0  0  0  0  0  0  0  0  0
  -17.1919  -42.3301   -8.8609 C   0  0  0  0  0  0  0  0  0  0  0  0
  -16.2987  -43.0821   -8.0553 C   0  0  0  0  0  0  0  0  0  0  0  0
  -16.6992  -43.9866   -7.1234 C   0  0  0  0  0  0  0  0  0  0  0  0
  -15.6905  -44.7511   -6.3032 C   0  0  0  0  0  0  0  0  0  0  0  0
  -17.9781  -44.1358   -7.0002 N   0  0  0  0  0  0  0  0  0  0  0  0
  -16.4121  -41.4547   -9.7413 C   0  0  0  0  0  0  0  0  0  0  0  0
  -15.3173  -41.9858  -10.2466 O   0  0  0  0  0  0  0  0  0  0  0  0
  -16.5559  -40.1337  -10.1946 N   0  0  0  0  0  0  0  0  0  0  0  0
  -22.6044  -43.7596   -7.1777 C   0  0  0  0  0  0  0  0  0  0  0  0
  -22.7208  -44.1528   -8.4198 O   0  0  0  0  0  0  0  0  0  0  0  0
  -23.8725  -43.8178   -6.4935 C   0  0  0  0  0  0  0  0  0  0  0  0
  -25.0198  -44.3326   -7.0826 C   0  0  0  0  0  0  0  0  0  0  0  0
  -26.2106  -44.3295   -6.4009 C   0  0  0  0  0  0  0  0  0  0  0  0
  -26.3085  -43.8162   -5.1094 C   0  0  0  0  0  0  0  0  0  0  0  0
  -27.4579  -43.7975   -4.4149 F   0  0  0  0  0  0  0  0  0  0  0  0
  -25.1825  -43.3011   -4.5075 C   0  0  0  0  0  0  0  0  0  0  0  0
  -24.0132  -43.3117   -5.1958 C   0  0  0  0  0  0  0  0  0  0  0  0
  -14.8389  -36.3514  -11.9088 C   0  0  0  0  0  0  0  0  0  0  0  0
  -14.5776  -35.0263  -11.6183 C   0  0  0  0  0  0  0  0  0  0  0  0
  -13.3221  -34.5117  -11.8191 C   0  0  0  0  0  0  0  0  0  0  0  0
  1  2  1  0
  2  3  1  0
  2  4  1  0
  4  5  2  0
  5  6  1  0
  6  7  1  0
  7  8  1  0
  8  9  1  0
  9 10  1  0
 10 11  1  6
 10 12  1  0
 12 13  1  1
 13 14  1  0
 14 15  1  1
 14 16  1  0
 16 17  1  0
 17 18  1  0
 18 19  1  0
 19 20  1  0
 20 21  1  0
 21 22  1  0
 22 23  1  0
 23 24  1  0
 24 25  2  0
 25 26  1  0
 26 27  2  0
 27 28  1  0
 28 29  1  0
 28 30  2  0
 26 31  1  0
 31 32  2  0
 31 33  1  0
 22 34  1  0
 34 35  2  0
 34 36  1  0
 36 37  2  0
 37 38  1  0
 38 39  2  0
 39 40  1  0
 39 41  1  0
 41 42  2  0
  6 43  2  0
 43 44  1  0
 44 45  2  0
 30 24  1  0
 33 12  1  0
 42 36  1  0
 45  4  1  0
M  END
$$$$
