
     RDKit          3D

 45 48  0  0  0  0  0  0  0  0999 V2000
  -10.3001  -37.6477  -12.0067 C   0  0  0  0  0  0  0  0  0  0  0  0
  -10.9914  -36.4403  -11.4408 C   0  0  0  0  0  0  0  0  0  0  0  0
  -11.0477  -36.5715   -9.9182 C   0  0  0  0  0  0  0  0  0  0  0  0
  -12.3918  -36.2903  -11.9128 C   0  0  0  0  0  0  0  0  0  0  0  0
  -13.3351  -37.2059  -11.5157 C   0  0  0  0  0  0  0  0  0  0  0  0
  -14.6480  -37.1070  -11.9196 C   0  0  0  0  0  0  0  0  0  0  0  0
  -15.6719  -38.1156  -11.4804 C   0  0  0  0  0  0  0  0  0  0  0  0
  -16.6177  -37.4694  -10.6382 N   0  0  0  0  0  0  0  0  0  0  0  0
  -16.1217  -36.9538   -9.3937 C   0  0  0  0  0  0  0  0  0  0  0  0
  -16.0557  -37.9078   -8.2815 C   0  0  1  0  0  0  0  0  0  0  0  0
  -16.0921  -37.3137   -7.0333 O   0  0  0  0  0  0  0  0  0  0  0  0
  -17.1851  -38.9540   -8.3021 C   0  0  2  0  0  0  0  0  0  0  0  0
  -17.8395  -38.9845   -6.9690 C   0  0  0  0  0  0  0  0  0  0  0  0
  -19.1880  -38.3780   -6.8643 C   0  0  2  0  0  0  0  0  0  0  0  0
  -19.1349  -37.3590   -5.7208 C   0  0  0  0  0  0  0  0  0  0  0  0
  -20.3852  -39.2265   -6.8374 C   0  0  0  0  0  0  0  0  0  0  0  0
  -21.0205  -39.6883   -8.0611 C   0  0  0  0  0  0  0  0  0  0  0  0
  -22.0924  -40.7228   -7.9538 C   0  0  0  0  0  0  0  0  0  0  0  0
  -23.1716  -40.4443   -6.9902 C   0  0  0  0  0  0  0  0  0  0  0  0
  -23.4208  -41.4048   -5.8977 C   0  0  0  0  0  0  0  0  0  0  0  0
  -22.4599  -42.4461   -5.5679 C   0  0  0  0  0  0  0  0  0  0  0  0
  -22.1535  -43.5056   -6.4769 N   0  0  0  0  0  0  0  0  0  0  0  0
  -20.8593  -44.0728   -6.5930 N   0  0  0  0  0  0  0  0  0  0  0  0
  -19.5563  -43.4969   -6.7327 C   0  0  0  0  0  0  0  0  0  0  0  0
  -18.9374  -42.6463   -7.6311 C   0  0  0  0  0  0  0  0  0  0  0  0
  -17.5927  -42.3299   -7.4058 C   0  0  0  0  0  0  0  0  0  0  0  0
  -16.9575  -42.9032   -6.2742 C   0  0  0  0  0  0  0  0  0  0  0  0
  -17.5786  -43.7381   -5.4001 C   0  0  0  0  0  0  0  0  0  0  0  0
  -16.8381  -44.3110   -4.2178 C   0  0  0  0  0  0  0  0  0  0  0  0
  -18.8201  -43.9954   -5.6564 N   0  0  0  0  0  0  0  0  0  0  0  0
  -16.6269  -41.4819   -8.1113 C   0  0  0  0  0  0  0  0  0  0  0  0
  -15.3997  -41.9560   -8.1829 O   0  0  0  0  0  0  0  0  0  0  0  0
  -16.6965  -40.2362   -8.7553 N   0  0  0  0  0  0  0  0  0  0  0  0
  -23.1672  -44.0857   -7.2905 C   0  0  0  0  0  0  0  0  0  0  0  0
  -22.8459  -44.7687   -8.3587 O   0  0  0  0  0  0  0  0  0  0  0  0
  -24.5977  -44.0413   -7.1131 C   0  0  0  0  0  0  0  0  0  0  0  0
  -25.3092  -45.0626   -6.4973 C   0  0  0  0  0  0  0  0  0  0  0  0
  -26.6749  -44.9881   -6.3880 C   0  0  0  0  0  0  0  0  0  0  0  0
  -27.3865  -43.8982   -6.8849 C   0  0  0  0  0  0  0  0  0  0  0  0
  -28.7224  -43.7943   -6.7949 F   0  0  0  0  0  0  0  0  0  0  0  0
  -26.6996  -42.8751   -7.4990 C   0  0  0  0  0  0  0  0  0  0  0  0
  -25.3494  -42.9649   -7.5988 C   0  0  0  0  0  0  0  0  0  0  0  0
  -15.0190  -36.0551  -12.7478 C   0  0  0  0  0  0  0  0  0  0  0  0
  -14.0771  -35.1292  -13.1528 C   0  0  0  0  0  0  0  0  0  0  0  0
  -12.7746  -35.2455  -12.7390 C   0  0  0  0  0  0  0  0  0  0  0  0
  1  2  1  0
  2  3  1  0
  2  4  1  0
  4  5  2  0
  5  6  1  0
  6  7  1  0
  7  8  1  0
  8  9  1  0
  9 10  1  0
 10 11  1  1
 10 12  1  0
 12 13  1  1
 13 14  1  0
 14 15  1  1
 14 16  1  0
 16 17  1  0
 17 18  1  0
 18 19  1  0
 19 20  1  0
 20 21  1  0
 21 22  1  0
 22 23  1  0
 23 24  1  0
 24 25  2  0
 25 26  1  0
 26 27  2  0
 27 28  1  0
 28 29  1  0
 28 30  2  0
 26 31  1  0
 31 32  2  0
 31 33  1  0
 22 34  1  0
 34 35  2  0
 34 36  1  0
 36 37  2  0
 37 38  1  0
 38 39  2  0
 39 40  1  0
 39 41  1  0
 41 42  2  0
  6 43  2  0
 43 44  1  0
 44 45  2  0
 30 24  1  0
 33 12  1  0
 42 36  1  0
 45  4  1  0
M  END
$$$$
