
     RDKit          3D

 45 48  0  0  0  0  0  0  0  0999 V2000
  -13.7659  -40.9175  -14.6994 C   0  0  0  0  0  0  0  0  0  0  0  0
  -13.0795  -39.5940  -14.8814 C   0  0  0  0  0  0  0  0  0  0  0  0
  -11.8467  -39.7939  -15.7639 C   0  0  0  0  0  0  0  0  0  0  0  0
  -12.6050  -38.9983  -13.6061 C   0  0  0  0  0  0  0  0  0  0  0  0
  -13.2330  -37.8809  -13.1133 C   0  0  0  0  0  0  0  0  0  0  0  0
  -12.8359  -37.2951  -11.9318 C   0  0  0  0  0  0  0  0  0  0  0  0
  -13.5292  -36.0713  -11.4024 C   0  0  0  0  0  0  0  0  0  0  0  0
  -14.0749  -36.3722  -10.1246 N   0  0  0  0  0  0  0  0  0  0  0  0
  -15.3280  -37.0724  -10.1108 C   0  0  0  0  0  0  0  0  0  0  0  0
  -15.9367  -37.2781   -8.7922 C   0  0  1  0  0  0  0  0  0  0  0  0
  -16.5444  -36.1485   -8.2754 O   0  0  0  0  0  0  0  0  0  0  0  0
  -16.9973  -38.3940   -8.7728 C   0  0  2  0  0  0  0  0  0  0  0  0
  -17.2490  -38.7966   -7.3653 C   0  0  0  0  0  0  0  0  0  0  0  0
  -18.5297  -38.3632   -6.7574 C   0  0  2  0  0  0  0  0  0  0  0  0
  -18.1848  -37.6381   -5.4520 C   0  0  0  0  0  0  0  0  0  0  0  0
  -19.6473  -39.3054   -6.6263 C   0  0  0  0  0  0  0  0  0  0  0  0
  -20.5883  -39.5284   -7.7121 C   0  0  0  0  0  0  0  0  0  0  0  0
  -21.5581  -40.6573   -7.5859 C   0  0  0  0  0  0  0  0  0  0  0  0
  -22.3297  -40.7156   -6.3322 C   0  0  0  0  0  0  0  0  0  0  0  0
  -22.2351  -41.9233   -5.4892 C   0  0  0  0  0  0  0  0  0  0  0  0
  -21.1921  -42.9157   -5.6984 C   0  0  0  0  0  0  0  0  0  0  0  0
  -21.1251  -43.7002   -6.8913 N   0  0  0  0  0  0  0  0  0  0  0  0
  -19.9008  -44.0980   -7.4855 N   0  0  0  0  0  0  0  0  0  0  0  0
  -18.7060  -43.3833   -7.8179 C   0  0  0  0  0  0  0  0  0  0  0  0
  -18.3884  -42.2915   -8.6061 C   0  0  0  0  0  0  0  0  0  0  0  0
  -17.0438  -41.9089   -8.6748 C   0  0  0  0  0  0  0  0  0  0  0  0
  -16.1005  -42.6662   -7.9338 C   0  0  0  0  0  0  0  0  0  0  0  0
  -16.4275  -43.7373   -7.1638 C   0  0  0  0  0  0  0  0  0  0  0  0
  -15.3688  -44.4960   -6.4035 C   0  0  0  0  0  0  0  0  0  0  0  0
  -17.6833  -44.0456   -7.1366 N   0  0  0  0  0  0  0  0  0  0  0  0
  -16.3391  -40.8314   -9.3762 C   0  0  0  0  0  0  0  0  0  0  0  0
  -15.1691  -41.1560   -9.8879 O   0  0  0  0  0  0  0  0  0  0  0  0
  -16.6211  -39.4826   -9.6455 N   0  0  0  0  0  0  0  0  0  0  0  0
  -22.3104  -44.1693   -7.5242 C   0  0  0  0  0  0  0  0  0  0  0  0
  -22.3333  -44.3711   -8.8163 O   0  0  0  0  0  0  0  0  0  0  0  0
  -23.5846  -44.4844   -6.9267 C   0  0  0  0  0  0  0  0  0  0  0  0
  -23.7090  -45.3094   -5.8166 C   0  0  0  0  0  0  0  0  0  0  0  0
  -24.9488  -45.6082   -5.3101 C   0  0  0  0  0  0  0  0  0  0  0  0
  -26.1117  -45.1000   -5.8851 C   0  0  0  0  0  0  0  0  0  0  0  0
  -27.3397  -45.3730   -5.4149 F   0  0  0  0  0  0  0  0  0  0  0  0
  -26.0098  -44.2801   -6.9864 C   0  0  0  0  0  0  0  0  0  0  0  0
  -24.7763  -43.9950   -7.4745 C   0  0  0  0  0  0  0  0  0  0  0  0
  -11.7753  -37.8523  -11.2285 C   0  0  0  0  0  0  0  0  0  0  0  0
  -11.1372  -38.9762  -11.7165 C   0  0  0  0  0  0  0  0  0  0  0  0
  -11.5482  -39.5446  -12.8951 C   0  0  0  0  0  0  0  0  0  0  0  0
  1  2  1  0
  2  3  1  0
  2  4  1  0
  4  5  2  0
  5  6  1  0
  6  7  1  0
  7  8  1  0
  8  9  1  0
  9 10  1  0
 10 11  1  6
 10 12  1  0
 12 13  1  1
 13 14  1  0
 14 15  1  1
 14 16  1  0
 16 17  1  0
 17 18  1  0
 18 19  1  0
 19 20  1  0
 20 21  1  0
 21 22  1  0
 22 23  1  0
 23 24  1  0
 24 25  2  0
 25 26  1  0
 26 27  2  0
 27 28  1  0
 28 29  1  0
 28 30  2  0
 26 31  1  0
 31 32  2  0
 31 33  1  0
 22 34  1  0
 34 35  2  0
 34 36  1  0
 36 37  2  0
 37 38  1  0
 38 39  2  0
 39 40  1  0
 39 41  1  0
 41 42  2  0
  6 43  2  0
 43 44  1  0
 44 45  2  0
 30 24  1  0
 33 12  1  0
 42 36  1  0
 45  4  1  0
M  END
$$$$
