
     RDKit          3D

 45 48  0  0  0  0  0  0  0  0999 V2000
  -11.9921  -39.9620  -12.8710 C   0  0  0  0  0  0  0  0  0  0  0  0
  -12.9514  -39.4561  -11.8318 C   0  0  0  0  0  0  0  0  0  0  0  0
  -14.3596  -39.9381  -12.1828 C   0  0  0  0  0  0  0  0  0  0  0  0
  -13.0089  -37.9736  -11.7578 C   0  0  0  0  0  0  0  0  0  0  0  0
  -14.0715  -37.3146  -12.3255 C   0  0  0  0  0  0  0  0  0  0  0  0
  -14.1751  -35.9420  -12.2776 C   0  0  0  0  0  0  0  0  0  0  0  0
  -15.3415  -35.2307  -12.9037 C   0  0  0  0  0  0  0  0  0  0  0  0
  -16.3905  -35.1447  -11.9480 N   0  0  0  0  0  0  0  0  0  0  0  0
  -16.6764  -36.3362  -11.2000 C   0  0  0  0  0  0  0  0  0  0  0  0
  -17.8450  -36.2770  -10.3156 C   0  0  1  0  0  0  0  0  0  0  0  0
  -18.9601  -35.7064  -10.9013 O   0  0  0  0  0  0  0  0  0  0  0  0
  -18.2845  -37.6542   -9.7857 C   0  0  2  0  0  0  0  0  0  0  0  0
  -18.5196  -37.5561   -8.3223 C   0  0  0  0  0  0  0  0  0  0  0  0
  -19.9285  -37.5729   -7.8618 C   0  0  2  0  0  0  0  0  0  0  0  0
  -20.1278  -36.3353   -6.9801 C   0  0  0  0  0  0  0  0  0  0  0  0
  -20.5116  -38.7951   -7.2960 C   0  0  0  0  0  0  0  0  0  0  0  0
  -21.0939  -39.8247   -8.1416 C   0  0  0  0  0  0  0  0  0  0  0  0
  -21.4620  -41.1293   -7.5145 C   0  0  0  0  0  0  0  0  0  0  0  0
  -22.2896  -41.0562   -6.2977 C   0  0  0  0  0  0  0  0  0  0  0  0
  -21.7805  -41.6559   -5.0490 C   0  0  0  0  0  0  0  0  0  0  0  0
  -20.3857  -42.0442   -4.9066 C   0  0  0  0  0  0  0  0  0  0  0  0
  -19.8113  -43.0949   -5.6868 N   0  0  0  0  0  0  0  0  0  0  0  0
  -18.4700  -43.0707   -6.1456 N   0  0  0  0  0  0  0  0  0  0  0  0
  -17.6892  -42.0711   -6.8091 C   0  0  0  0  0  0  0  0  0  0  0  0
  -17.7897  -41.3517   -7.9865 C   0  0  0  0  0  0  0  0  0  0  0  0
  -16.7639  -40.4474   -8.2850 C   0  0  0  0  0  0  0  0  0  0  0  0
  -15.6930  -40.3317   -7.3619 C   0  0  0  0  0  0  0  0  0  0  0  0
  -15.6075  -41.0458   -6.2088 C   0  0  0  0  0  0  0  0  0  0  0  0
  -14.4366  -40.8703   -5.2747 C   0  0  0  0  0  0  0  0  0  0  0  0
  -16.5825  -41.8654   -5.9835 N   0  0  0  0  0  0  0  0  0  0  0  0
  -16.5280  -39.5264   -9.4011 C   0  0  0  0  0  0  0  0  0  0  0  0
  -15.2788  -39.4373   -9.8105 O   0  0  0  0  0  0  0  0  0  0  0  0
  -17.3446  -38.6822  -10.1704 N   0  0  0  0  0  0  0  0  0  0  0  0
  -20.5614  -44.2620   -6.0048 C   0  0  0  0  0  0  0  0  0  0  0  0
  -21.8523  -44.2940   -5.7970 O   0  0  0  0  0  0  0  0  0  0  0  0
  -20.0942  -45.5068   -6.5633 C   0  0  0  0  0  0  0  0  0  0  0  0
  -18.9281  -46.1292   -6.1375 C   0  0  0  0  0  0  0  0  0  0  0  0
  -18.5078  -47.2938   -6.7291 C   0  0  0  0  0  0  0  0  0  0  0  0
  -19.2280  -47.8851   -7.7648 C   0  0  0  0  0  0  0  0  0  0  0  0
  -18.8446  -49.0234   -8.3654 F   0  0  0  0  0  0  0  0  0  0  0  0
  -20.3869  -47.2836   -8.2017 C   0  0  0  0  0  0  0  0  0  0  0  0
  -20.7880  -46.1324   -7.6059 C   0  0  0  0  0  0  0  0  0  0  0  0
  -13.1782  -35.2147  -11.6393 C   0  0  0  0  0  0  0  0  0  0  0  0
  -12.1052  -35.8689  -11.0655 C   0  0  0  0  0  0  0  0  0  0  0  0
  -12.0210  -37.2366  -11.1241 C   0  0  0  0  0  0  0  0  0  0  0  0
  1  2  1  0
  2  3  1  0
  2  4  1  0
  4  5  2  0
  5  6  1  0
  6  7  1  0
  7  8  1  0
  8  9  1  0
  9 10  1  0
 10 11  1  6
 10 12  1  0
 12 13  1  1
 13 14  1  0
 14 15  1  1
 14 16  1  0
 16 17  1  0
 17 18  1  0
 18 19  1  0
 19 20  1  0
 20 21  1  0
 21 22  1  0
 22 23  1  0
 23 24  1  0
 24 25  2  0
 25 26  1  0
 26 27  2  0
 27 28  1  0
 28 29  1  0
 28 30  2  0
 26 31  1  0
 31 32  2  0
 31 33  1  0
 22 34  1  0
 34 35  2  0
 34 36  1  0
 36 37  2  0
 37 38  1  0
 38 39  2  0
 39 40  1  0
 39 41  1  0
 41 42  2  0
  6 43  2  0
 43 44  1  0
 44 45  2  0
 30 24  1  0
 33 12  1  0
 42 36  1  0
 45  4  1  0
M  END
$$$$
