
     RDKit          3D

 45 48  0  0  0  0  0  0  0  0999 V2000
  -11.1412  -33.8175  -11.4350 C   0  0  0  0  0  0  0  0  0  0  0  0
  -10.9239  -34.7967  -10.3170 C   0  0  0  0  0  0  0  0  0  0  0  0
   -9.4367  -34.8186   -9.9614 C   0  0  0  0  0  0  0  0  0  0  0  0
  -11.3027  -36.1881  -10.6731 C   0  0  0  0  0  0  0  0  0  0  0  0
  -11.8519  -37.0005   -9.7118 C   0  0  0  0  0  0  0  0  0  0  0  0
  -12.2266  -38.2956   -9.9930 C   0  0  0  0  0  0  0  0  0  0  0  0
  -12.8252  -39.1767   -8.9328 C   0  0  0  0  0  0  0  0  0  0  0  0
  -14.1348  -38.7094   -8.6365 N   0  0  0  0  0  0  0  0  0  0  0  0
  -14.9746  -39.5923   -7.8774 C   0  0  0  0  0  0  0  0  0  0  0  0
  -16.2590  -39.0386   -7.4357 C   0  0  1  0  0  0  0  0  0  0  0  0
  -16.6330  -37.8901   -8.1090 O   0  0  0  0  0  0  0  0  0  0  0  0
  -17.4321  -40.0267   -7.5691 C   0  0  2  0  0  0  0  0  0  0  0  0
  -18.2940  -39.9187   -6.3642 C   0  0  0  0  0  0  0  0  0  0  0  0
  -19.6020  -39.2407   -6.5277 C   0  0  2  0  0  0  0  0  0  0  0  0
  -19.6721  -38.1375   -5.4662 C   0  0  0  0  0  0  0  0  0  0  0  0
  -20.8375  -40.0249   -6.6397 C   0  0  0  0  0  0  0  0  0  0  0  0
  -21.2937  -40.5514   -7.9160 C   0  0  0  0  0  0  0  0  0  0  0  0
  -22.4302  -41.5205   -7.9149 C   0  0  0  0  0  0  0  0  0  0  0  0
  -23.6318  -41.1137   -7.1657 C   0  0  0  0  0  0  0  0  0  0  0  0
  -24.1126  -41.9705   -6.0644 C   0  0  0  0  0  0  0  0  0  0  0  0
  -23.2832  -43.0278   -5.5071 C   0  0  0  0  0  0  0  0  0  0  0  0
  -22.8994  -44.1702   -6.2755 N   0  0  0  0  0  0  0  0  0  0  0  0
  -21.6406  -44.8074   -6.1349 N   0  0  0  0  0  0  0  0  0  0  0  0
  -20.2994  -44.3087   -6.0970 C   0  0  0  0  0  0  0  0  0  0  0  0
  -19.4925  -43.5637   -6.9383 C   0  0  0  0  0  0  0  0  0  0  0  0
  -18.1851  -43.2963   -6.5162 C   0  0  0  0  0  0  0  0  0  0  0  0
  -17.7775  -43.8077   -5.2573 C   0  0  0  0  0  0  0  0  0  0  0  0
  -18.5816  -44.5388   -4.4414 C   0  0  0  0  0  0  0  0  0  0  0  0
  -18.0783  -45.0510   -3.1151 C   0  0  0  0  0  0  0  0  0  0  0  0
  -19.7787  -44.7549   -4.8811 N   0  0  0  0  0  0  0  0  0  0  0  0
  -17.0679  -42.5555   -7.1100 C   0  0  0  0  0  0  0  0  0  0  0  0
  -15.8766  -43.0931   -6.9435 O   0  0  0  0  0  0  0  0  0  0  0  0
  -16.9561  -41.3633   -7.8432 N   0  0  0  0  0  0  0  0  0  0  0  0
  -23.8018  -44.7632   -7.2027 C   0  0  0  0  0  0  0  0  0  0  0  0
  -23.3867  -45.1235   -8.3896 O   0  0  0  0  0  0  0  0  0  0  0  0
  -25.2036  -45.0557   -7.0318 C   0  0  0  0  0  0  0  0  0  0  0  0
  -25.8232  -46.1398   -7.6394 C   0  0  0  0  0  0  0  0  0  0  0  0
  -27.1690  -46.3513   -7.4746 C   0  0  0  0  0  0  0  0  0  0  0  0
  -27.9508  -45.4960   -6.7011 C   0  0  0  0  0  0  0  0  0  0  0  0
  -29.2695  -45.6738   -6.5199 F   0  0  0  0  0  0  0  0  0  0  0  0
  -27.3554  -44.4152   -6.0903 C   0  0  0  0  0  0  0  0  0  0  0  0
  -26.0238  -44.2207   -6.2638 C   0  0  0  0  0  0  0  0  0  0  0  0
  -12.0415  -38.7844  -11.2802 C   0  0  0  0  0  0  0  0  0  0  0  0
  -11.4895  -37.9747  -12.2540 C   0  0  0  0  0  0  0  0  0  0  0  0
  -11.1232  -36.6876  -11.9534 C   0  0  0  0  0  0  0  0  0  0  0  0
  1  2  1  0
  2  3  1  0
  2  4  1  0
  4  5  2  0
  5  6  1  0
  6  7  1  0
  7  8  1  0
  8  9  1  0
  9 10  1  0
 10 11  1  6
 10 12  1  0
 12 13  1  1
 13 14  1  0
 14 15  1  1
 14 16  1  0
 16 17  1  0
 17 18  1  0
 18 19  1  0
 19 20  1  0
 20 21  1  0
 21 22  1  0
 22 23  1  0
 23 24  1  0
 24 25  2  0
 25 26  1  0
 26 27  2  0
 27 28  1  0
 28 29  1  0
 28 30  2  0
 26 31  1  0
 31 32  2  0
 31 33  1  0
 22 34  1  0
 34 35  2  0
 34 36  1  0
 36 37  2  0
 37 38  1  0
 38 39  2  0
 39 40  1  0
 39 41  1  0
 41 42  2  0
  6 43  2  0
 43 44  1  0
 44 45  2  0
 30 24  1  0
 33 12  1  0
 42 36  1  0
 45  4  1  0
M  END
$$$$
