
     RDKit          3D

 45 48  0  0  0  0  0  0  0  0999 V2000
  -18.6592  -40.2014  -12.4056 C   0  0  0  0  0  0  0  0  0  0  0  0
  -19.1749  -38.7929  -12.3275 C   0  0  0  0  0  0  0  0  0  0  0  0
  -20.0205  -38.5066  -13.5690 C   0  0  0  0  0  0  0  0  0  0  0  0
  -18.0953  -37.7731  -12.2964 C   0  0  0  0  0  0  0  0  0  0  0  0
  -16.9290  -38.0514  -11.6269 C   0  0  0  0  0  0  0  0  0  0  0  0
  -15.8954  -37.1427  -11.5747 C   0  0  0  0  0  0  0  0  0  0  0  0
  -14.6239  -37.4569  -10.8378 C   0  0  0  0  0  0  0  0  0  0  0  0
  -14.8435  -38.5930  -10.0118 N   0  0  0  0  0  0  0  0  0  0  0  0
  -15.5376  -38.3635   -8.7763 C   0  0  0  0  0  0  0  0  0  0  0  0
  -15.8239  -39.5531   -7.9675 C   0  0  1  0  0  0  0  0  0  0  0  0
  -15.4913  -39.4139   -6.6324 O   0  0  0  0  0  0  0  0  0  0  0  0
  -17.3020  -39.9823   -8.0085 C   0  0  2  0  0  0  0  0  0  0  0  0
  -17.6414  -40.6678   -6.7352 C   0  0  0  0  0  0  0  0  0  0  0  0
  -18.4843  -39.9221   -5.7703 C   0  0  2  0  0  0  0  0  0  0  0  0
  -17.7427  -39.9258   -4.4292 C   0  0  0  0  0  0  0  0  0  0  0  0
  -19.9163  -40.2199   -5.6485 C   0  0  0  0  0  0  0  0  0  0  0  0
  -20.9009  -39.6017   -6.5218 C   0  0  0  0  0  0  0  0  0  0  0  0
  -22.3014  -40.1195   -6.4857 C   0  0  0  0  0  0  0  0  0  0  0  0
  -22.9205  -40.2298   -5.1532 C   0  0  0  0  0  0  0  0  0  0  0  0
  -23.4058  -41.5466   -4.6966 C   0  0  0  0  0  0  0  0  0  0  0  0
  -23.0286  -42.7740   -5.3805 C   0  0  0  0  0  0  0  0  0  0  0  0
  -23.4403  -43.0480   -6.7214 N   0  0  0  0  0  0  0  0  0  0  0  0
  -22.6268  -43.7429   -7.6518 N   0  0  0  0  0  0  0  0  0  0  0  0
  -21.2563  -43.5999   -8.0392 C   0  0  0  0  0  0  0  0  0  0  0  0
  -20.4730  -42.5878   -8.5647 C   0  0  0  0  0  0  0  0  0  0  0  0
  -19.1278  -42.8750   -8.8236 C   0  0  0  0  0  0  0  0  0  0  0  0
  -18.6610  -44.1823   -8.5309 C   0  0  0  0  0  0  0  0  0  0  0  0
  -19.4428  -45.1670   -8.0149 C   0  0  0  0  0  0  0  0  0  0  0  0
  -18.8765  -46.5354   -7.7297 C   0  0  0  0  0  0  0  0  0  0  0  0
  -20.6764  -44.8461   -7.7951 N   0  0  0  0  0  0  0  0  0  0  0  0
  -18.0145  -42.0834   -9.3560 C   0  0  0  0  0  0  0  0  0  0  0  0
  -17.2055  -42.7207  -10.1778 O   0  0  0  0  0  0  0  0  0  0  0  0
  -17.5848  -40.7564   -9.1955 N   0  0  0  0  0  0  0  0  0  0  0  0
  -24.7338  -42.6701   -7.1797 C   0  0  0  0  0  0  0  0  0  0  0  0
  -25.4777  -41.8650   -6.4662 O   0  0  0  0  0  0  0  0  0  0  0  0
  -25.4060  -43.0579   -8.3953 C   0  0  0  0  0  0  0  0  0  0  0  0
  -26.6585  -43.6575   -8.4013 C   0  0  0  0  0  0  0  0  0  0  0  0
  -27.2376  -44.0420   -9.5843 C   0  0  0  0  0  0  0  0  0  0  0  0
  -26.5967  -43.8462  -10.8058 C   0  0  0  0  0  0  0  0  0  0  0  0
  -27.1348  -44.2110  -11.9809 F   0  0  0  0  0  0  0  0  0  0  0  0
  -25.3541  -43.2534  -10.8214 C   0  0  0  0  0  0  0  0  0  0  0  0
  -24.7959  -42.8795   -9.6425 C   0  0  0  0  0  0  0  0  0  0  0  0
  -16.0433  -35.9190  -12.2157 C   0  0  0  0  0  0  0  0  0  0  0  0
  -17.2131  -35.6299  -12.8915 C   0  0  0  0  0  0  0  0  0  0  0  0
  -18.2305  -36.5489  -12.9317 C   0  0  0  0  0  0  0  0  0  0  0  0
  1  2  1  0
  2  3  1  0
  2  4  1  0
  4  5  2  0
  5  6  1  0
  6  7  1  0
  7  8  1  0
  8  9  1  0
  9 10  1  0
 10 11  1  1
 10 12  1  0
 12 13  1  1
 13 14  1  0
 14 15  1  1
 14 16  1  0
 16 17  1  0
 17 18  1  0
 18 19  1  0
 19 20  1  0
 20 21  1  0
 21 22  1  0
 22 23  1  0
 23 24  1  0
 24 25  2  0
 25 26  1  0
 26 27  2  0
 27 28  1  0
 28 29  1  0
 28 30  2  0
 26 31  1  0
 31 32  2  0
 31 33  1  0
 22 34  1  0
 34 35  2  0
 34 36  1  0
 36 37  2  0
 37 38  1  0
 38 39  2  0
 39 40  1  0
 39 41  1  0
 41 42  2  0
  6 43  2  0
 43 44  1  0
 44 45  2  0
 30 24  1  0
 33 12  1  0
 42 36  1  0
 45  4  1  0
M  END
$$$$
