
     RDKit          3D

 45 48  0  0  0  0  0  0  0  0999 V2000
   -9.9510  -38.4785  -15.2425 C   0  0  0  0  0  0  0  0  0  0  0  0
  -11.2256  -38.7384  -14.4917 C   0  0  0  0  0  0  0  0  0  0  0  0
  -12.3583  -38.9461  -15.4978 C   0  0  0  0  0  0  0  0  0  0  0  0
  -11.6301  -37.6109  -13.6133 C   0  0  0  0  0  0  0  0  0  0  0  0
  -12.9064  -37.5796  -13.1074 C   0  0  0  0  0  0  0  0  0  0  0  0
  -13.3282  -36.5602  -12.2828 C   0  0  0  0  0  0  0  0  0  0  0  0
  -14.7278  -36.5349  -11.7360 C   0  0  0  0  0  0  0  0  0  0  0  0
  -15.0590  -37.8359  -11.2681 N   0  0  0  0  0  0  0  0  0  0  0  0
  -15.1781  -37.9955   -9.8465 C   0  0  0  0  0  0  0  0  0  0  0  0
  -16.4378  -37.5387   -9.2500 C   0  0  1  0  0  0  0  0  0  0  0  0
  -17.0296  -36.4901   -9.9301 O   0  0  0  0  0  0  0  0  0  0  0  0
  -17.5020  -38.6458   -9.1397 C   0  0  2  0  0  0  0  0  0  0  0  0
  -17.6250  -39.0576   -7.7178 C   0  0  0  0  0  0  0  0  0  0  0  0
  -18.8393  -38.6184   -6.9898 C   0  0  2  0  0  0  0  0  0  0  0  0
  -18.3674  -37.9068   -5.7171 C   0  0  0  0  0  0  0  0  0  0  0  0
  -19.9483  -39.5522   -6.7617 C   0  0  0  0  0  0  0  0  0  0  0  0
  -20.9886  -39.7586   -7.7564 C   0  0  0  0  0  0  0  0  0  0  0  0
  -21.9525  -40.8803   -7.5484 C   0  0  0  0  0  0  0  0  0  0  0  0
  -22.6043  -40.9422   -6.2285 C   0  0  0  0  0  0  0  0  0  0  0  0
  -22.4423  -42.1574   -5.4068 C   0  0  0  0  0  0  0  0  0  0  0  0
  -21.4325  -43.1568   -5.7197 C   0  0  0  0  0  0  0  0  0  0  0  0
  -21.4843  -43.9321   -6.9193 N   0  0  0  0  0  0  0  0  0  0  0  0
  -20.3244  -44.3355   -7.6281 N   0  0  0  0  0  0  0  0  0  0  0  0
  -19.1595  -43.6281   -8.0655 C   0  0  0  0  0  0  0  0  0  0  0  0
  -18.9069  -42.5328   -8.8720 C   0  0  0  0  0  0  0  0  0  0  0  0
  -17.5712  -42.1609   -9.0633 C   0  0  0  0  0  0  0  0  0  0  0  0
  -16.5697  -42.9320   -8.4191 C   0  0  0  0  0  0  0  0  0  0  0  0
  -16.8331  -44.0064   -7.6296 C   0  0  0  0  0  0  0  0  0  0  0  0
  -15.7150  -44.7801   -6.9771 C   0  0  0  0  0  0  0  0  0  0  0  0
  -18.0837  -44.3044   -7.4875 N   0  0  0  0  0  0  0  0  0  0  0  0
  -16.9252  -41.0837   -9.8196 C   0  0  0  0  0  0  0  0  0  0  0  0
  -15.8112  -41.4139  -10.4407 O   0  0  0  0  0  0  0  0  0  0  0  0
  -17.2189  -39.7305  -10.0516 N   0  0  0  0  0  0  0  0  0  0  0  0
  -22.7278  -44.3862   -7.4421 C   0  0  0  0  0  0  0  0  0  0  0  0
  -22.8872  -44.5336   -8.7319 O   0  0  0  0  0  0  0  0  0  0  0  0
  -23.9291  -44.7392   -6.7265 C   0  0  0  0  0  0  0  0  0  0  0  0
  -24.2478  -46.0498   -6.3962 C   0  0  0  0  0  0  0  0  0  0  0  0
  -25.4229  -46.3354   -5.7478 C   0  0  0  0  0  0  0  0  0  0  0  0
  -26.3260  -45.3322   -5.4024 C   0  0  0  0  0  0  0  0  0  0  0  0
  -27.4842  -45.5774   -4.7685 F   0  0  0  0  0  0  0  0  0  0  0  0
  -26.0286  -44.0262   -5.7210 C   0  0  0  0  0  0  0  0  0  0  0  0
  -24.8625  -43.7615   -6.3623 C   0  0  0  0  0  0  0  0  0  0  0  0
  -12.4373  -35.5442  -11.9605 C   0  0  0  0  0  0  0  0  0  0  0  0
  -11.1514  -35.5670  -12.4650 C   0  0  0  0  0  0  0  0  0  0  0  0
  -10.7509  -36.5914  -13.2844 C   0  0  0  0  0  0  0  0  0  0  0  0
  1  2  1  0
  2  3  1  0
  2  4  1  0
  4  5  2  0
  5  6  1  0
  6  7  1  0
  7  8  1  0
  8  9  1  0
  9 10  1  0
 10 11  1  6
 10 12  1  0
 12 13  1  1
 13 14  1  0
 14 15  1  1
 14 16  1  0
 16 17  1  0
 17 18  1  0
 18 19  1  0
 19 20  1  0
 20 21  1  0
 21 22  1  0
 22 23  1  0
 23 24  1  0
 24 25  2  0
 25 26  1  0
 26 27  2  0
 27 28  1  0
 28 29  1  0
 28 30  2  0
 26 31  1  0
 31 32  2  0
 31 33  1  0
 22 34  1  0
 34 35  2  0
 34 36  1  0
 36 37  2  0
 37 38  1  0
 38 39  2  0
 39 40  1  0
 39 41  1  0
 41 42  2  0
  6 43  2  0
 43 44  1  0
 44 45  2  0
 30 24  1  0
 33 12  1  0
 42 36  1  0
 45  4  1  0
M  END
$$$$
