
     RDKit          3D

 45 48  0  0  0  0  0  0  0  0999 V2000
  -12.8555  -37.0970  -16.3501 C   0  0  0  0  0  0  0  0  0  0  0  0
  -12.5791  -37.8364  -15.0723 C   0  0  0  0  0  0  0  0  0  0  0  0
  -12.6260  -39.3393  -15.3509 C   0  0  0  0  0  0  0  0  0  0  0  0
  -13.5786  -37.5636  -14.0079 C   0  0  0  0  0  0  0  0  0  0  0  0
  -13.3000  -37.9346  -12.7154 C   0  0  0  0  0  0  0  0  0  0  0  0
  -14.1901  -37.6976  -11.6914 C   0  0  0  0  0  0  0  0  0  0  0  0
  -13.8758  -38.1093  -10.2807 C   0  0  0  0  0  0  0  0  0  0  0  0
  -14.6925  -39.2210   -9.9366 N   0  0  0  0  0  0  0  0  0  0  0  0
  -14.7308  -39.5837   -8.5482 C   0  0  0  0  0  0  0  0  0  0  0  0
  -15.8025  -38.9753   -7.7526 C   0  0  1  0  0  0  0  0  0  0  0  0
  -15.9121  -37.6067   -7.9175 O   0  0  0  0  0  0  0  0  0  0  0  0
  -17.1945  -39.5648   -8.0448 C   0  0  2  0  0  0  0  0  0  0  0  0
  -17.7184  -40.2015   -6.8093 C   0  0  0  0  0  0  0  0  0  0  0  0
  -18.8056  -39.4928   -6.0930 C   0  0  2  0  0  0  0  0  0  0  0  0
  -18.3538  -39.3310   -4.6375 C   0  0  0  0  0  0  0  0  0  0  0  0
  -20.1980  -39.9366   -6.2280 C   0  0  0  0  0  0  0  0  0  0  0  0
  -21.0393  -39.4858   -7.3249 C   0  0  0  0  0  0  0  0  0  0  0  0
  -22.3630  -40.1499   -7.5192 C   0  0  0  0  0  0  0  0  0  0  0  0
  -23.2257  -40.2428   -6.3285 C   0  0  0  0  0  0  0  0  0  0  0  0
  -23.6670  -41.5732   -5.8667 C   0  0  0  0  0  0  0  0  0  0  0  0
  -23.0452  -42.7928   -6.3590 C   0  0  0  0  0  0  0  0  0  0  0  0
  -23.1494  -43.1941   -7.7268 N   0  0  0  0  0  0  0  0  0  0  0  0
  -22.1026  -43.8535   -8.4195 N   0  0  0  0  0  0  0  0  0  0  0  0
  -20.7017  -43.5866   -8.5430 C   0  0  0  0  0  0  0  0  0  0  0  0
  -19.9273  -42.5304   -8.9885 C   0  0  0  0  0  0  0  0  0  0  0  0
  -18.5366  -42.6850   -8.9555 C   0  0  0  0  0  0  0  0  0  0  0  0
  -18.0176  -43.9125   -8.4692 C   0  0  0  0  0  0  0  0  0  0  0  0
  -18.7912  -44.9420   -8.0350 C   0  0  0  0  0  0  0  0  0  0  0  0
  -18.1680  -46.2197   -7.5315 C   0  0  0  0  0  0  0  0  0  0  0  0
  -20.0684  -44.7443   -8.0873 N   0  0  0  0  0  0  0  0  0  0  0  0
  -17.4182  -41.8119   -9.3250 C   0  0  0  0  0  0  0  0  0  0  0  0
  -16.4033  -42.4078   -9.9172 O   0  0  0  0  0  0  0  0  0  0  0  0
  -17.1569  -40.4385   -9.1953 N   0  0  0  0  0  0  0  0  0  0  0  0
  -24.3530  -42.9892   -8.4582 C   0  0  0  0  0  0  0  0  0  0  0  0
  -24.9993  -41.8562   -8.3618 O   0  0  0  0  0  0  0  0  0  0  0  0
  -25.0240  -43.8950   -9.3578 C   0  0  0  0  0  0  0  0  0  0  0  0
  -25.0381  -43.7120  -10.7342 C   0  0  0  0  0  0  0  0  0  0  0  0
  -25.7241  -44.5829  -11.5427 C   0  0  0  0  0  0  0  0  0  0  0  0
  -26.4218  -45.6682  -11.0167 C   0  0  0  0  0  0  0  0  0  0  0  0
  -27.1033  -46.5386  -11.7793 F   0  0  0  0  0  0  0  0  0  0  0  0
  -26.4203  -45.8672   -9.6544 C   0  0  0  0  0  0  0  0  0  0  0  0
  -25.7370  -44.9964   -8.8696 C   0  0  0  0  0  0  0  0  0  0  0  0
  -15.3949  -37.0690  -11.9803 C   0  0  0  0  0  0  0  0  0  0  0  0
  -15.6841  -36.6923  -13.2776 C   0  0  0  0  0  0  0  0  0  0  0  0
  -14.7839  -36.9374  -14.2830 C   0  0  0  0  0  0  0  0  0  0  0  0
  1  2  1  0
  2  3  1  0
  2  4  1  0
  4  5  2  0
  5  6  1  0
  6  7  1  0
  7  8  1  0
  8  9  1  0
  9 10  1  0
 10 11  1  6
 10 12  1  0
 12 13  1  1
 13 14  1  0
 14 15  1  1
 14 16  1  0
 16 17  1  0
 17 18  1  0
 18 19  1  0
 19 20  1  0
 20 21  1  0
 21 22  1  0
 22 23  1  0
 23 24  1  0
 24 25  2  0
 25 26  1  0
 26 27  2  0
 27 28  1  0
 28 29  1  0
 28 30  2  0
 26 31  1  0
 31 32  2  0
 31 33  1  0
 22 34  1  0
 34 35  2  0
 34 36  1  0
 36 37  2  0
 37 38  1  0
 38 39  2  0
 39 40  1  0
 39 41  1  0
 41 42  2  0
  6 43  2  0
 43 44  1  0
 44 45  2  0
 30 24  1  0
 33 12  1  0
 42 36  1  0
 45  4  1  0
M  END
$$$$
