
     RDKit          3D

 45 48  0  0  0  0  0  0  0  0999 V2000
  -18.8864  -35.1774  -10.5454 C   0  0  0  0  0  0  0  0  0  0  0  0
  -17.4453  -34.8082  -10.7519 C   0  0  0  0  0  0  0  0  0  0  0  0
  -17.3768  -33.5461  -11.6126 C   0  0  0  0  0  0  0  0  0  0  0  0
  -16.6662  -35.8561  -11.4601 C   0  0  0  0  0  0  0  0  0  0  0  0
  -15.8973  -36.7286  -10.7299 C   0  0  0  0  0  0  0  0  0  0  0  0
  -15.1624  -37.7219  -11.3383 C   0  0  0  0  0  0  0  0  0  0  0  0
  -14.3229  -38.6705  -10.5296 C   0  0  0  0  0  0  0  0  0  0  0  0
  -14.3173  -38.2353   -9.1761 N   0  0  0  0  0  0  0  0  0  0  0  0
  -15.5772  -38.2612   -8.4885 C   0  0  0  0  0  0  0  0  0  0  0  0
  -15.7470  -39.3264   -7.4946 C   0  0  1  0  0  0  0  0  0  0  0  0
  -15.5917  -38.9009   -6.1881 O   0  0  0  0  0  0  0  0  0  0  0  0
  -17.1183  -40.0225   -7.5688 C   0  0  2  0  0  0  0  0  0  0  0  0
  -17.5278  -40.4299   -6.2003 C   0  0  0  0  0  0  0  0  0  0  0  0
  -18.6076  -39.6446   -5.5563 C   0  0  2  0  0  0  0  0  0  0  0  0
  -18.0770  -39.1835   -4.1945 C   0  0  0  0  0  0  0  0  0  0  0  0
  -19.9780  -40.1674   -5.5044 C   0  0  0  0  0  0  0  0  0  0  0  0
  -20.9097  -39.9758   -6.6042 C   0  0  0  0  0  0  0  0  0  0  0  0
  -22.2026  -40.7229   -6.5732 C   0  0  0  0  0  0  0  0  0  0  0  0
  -22.9836  -40.6211   -5.3280 C   0  0  0  0  0  0  0  0  0  0  0  0
  -23.3188  -41.8548   -4.5907 C   0  0  0  0  0  0  0  0  0  0  0  0
  -22.6597  -43.1180   -4.8845 C   0  0  0  0  0  0  0  0  0  0  0  0
  -22.8247  -43.7814   -6.1397 N   0  0  0  0  0  0  0  0  0  0  0  0
  -21.7865  -44.5156   -6.7669 N   0  0  0  0  0  0  0  0  0  0  0  0
  -20.4135  -44.2160   -7.0389 C   0  0  0  0  0  0  0  0  0  0  0  0
  -19.7298  -43.2331   -7.7319 C   0  0  0  0  0  0  0  0  0  0  0  0
  -18.3331  -43.3165   -7.7694 C   0  0  0  0  0  0  0  0  0  0  0  0
  -17.7157  -44.4020   -7.0964 C   0  0  0  0  0  0  0  0  0  0  0  0
  -18.4009  -45.3609   -6.4197 C   0  0  0  0  0  0  0  0  0  0  0  0
  -17.6757  -46.4878   -5.7277 C   0  0  0  0  0  0  0  0  0  0  0  0
  -19.6881  -45.2339   -6.4173 N   0  0  0  0  0  0  0  0  0  0  0  0
  -17.2915  -42.4830   -8.3776 C   0  0  0  0  0  0  0  0  0  0  0  0
  -16.2824  -43.1369   -8.9164 O   0  0  0  0  0  0  0  0  0  0  0  0
  -17.1017  -41.1004   -8.5312 N   0  0  0  0  0  0  0  0  0  0  0  0
  -24.0809  -43.7759   -6.8089 C   0  0  0  0  0  0  0  0  0  0  0  0
  -24.2049  -43.1975   -7.9755 O   0  0  0  0  0  0  0  0  0  0  0  0
  -25.3318  -44.3499   -6.3781 C   0  0  0  0  0  0  0  0  0  0  0  0
  -25.8226  -44.1968   -5.0881 C   0  0  0  0  0  0  0  0  0  0  0  0
  -27.0005  -44.7961   -4.7187 C   0  0  0  0  0  0  0  0  0  0  0  0
  -27.7358  -45.5694   -5.6143 C   0  0  0  0  0  0  0  0  0  0  0  0
  -28.8912  -46.1697   -5.2852 F   0  0  0  0  0  0  0  0  0  0  0  0
  -27.2662  -45.7336   -6.8981 C   0  0  0  0  0  0  0  0  0  0  0  0
  -26.0999  -45.1343   -7.2468 C   0  0  0  0  0  0  0  0  0  0  0  0
  -15.2046  -37.8374  -12.7221 C   0  0  0  0  0  0  0  0  0  0  0  0
  -15.9751  -36.9641  -13.4652 C   0  0  0  0  0  0  0  0  0  0  0  0
  -16.6998  -35.9818  -12.8399 C   0  0  0  0  0  0  0  0  0  0  0  0
  1  2  1  0
  2  3  1  0
  2  4  1  0
  4  5  2  0
  5  6  1  0
  6  7  1  0
  7  8  1  0
  8  9  1  0
  9 10  1  0
 10 11  1  1
 10 12  1  0
 12 13  1  1
 13 14  1  0
 14 15  1  1
 14 16  1  0
 16 17  1  0
 17 18  1  0
 18 19  1  0
 19 20  1  0
 20 21  1  0
 21 22  1  0
 22 23  1  0
 23 24  1  0
 24 25  2  0
 25 26  1  0
 26 27  2  0
 27 28  1  0
 28 29  1  0
 28 30  2  0
 26 31  1  0
 31 32  2  0
 31 33  1  0
 22 34  1  0
 34 35  2  0
 34 36  1  0
 36 37  2  0
 37 38  1  0
 38 39  2  0
 39 40  1  0
 39 41  1  0
 41 42  2  0
  6 43  2  0
 43 44  1  0
 44 45  2  0
 30 24  1  0
 33 12  1  0
 42 36  1  0
 45  4  1  0
M  END
$$$$
