
     RDKit          3D

 45 48  0  0  0  0  0  0  0  0999 V2000
  -21.5471  -41.1822    0.6483 C   0  0  0  0  0  0  0  0  0  0  0  0
  -21.2795  -39.7107    0.7867 C   0  0  0  0  0  0  0  0  0  0  0  0
  -22.5098  -38.9376    0.3102 C   0  0  0  0  0  0  0  0  0  0  0  0
  -20.1321  -39.2429   -0.0324 C   0  0  0  0  0  0  0  0  0  0  0  0
  -19.7709  -39.9553   -1.1494 C   0  0  0  0  0  0  0  0  0  0  0  0
  -18.7195  -39.5594   -1.9461 C   0  0  0  0  0  0  0  0  0  0  0  0
  -18.3316  -40.3475   -3.1655 C   0  0  0  0  0  0  0  0  0  0  0  0
  -18.4906  -39.5224   -4.3123 N   0  0  0  0  0  0  0  0  0  0  0  0
  -17.3327  -39.3482   -5.1429 C   0  0  0  0  0  0  0  0  0  0  0  0
  -17.5784  -38.8159   -6.4874 C   0  0  1  0  0  0  0  0  0  0  0  0
  -16.5593  -38.0122   -6.9645 O   0  0  0  0  0  0  0  0  0  0  0  0
  -17.8080  -39.9084   -7.5478 C   0  0  2  0  0  0  0  0  0  0  0  0
  -19.2183  -39.8443   -8.0096 C   0  0  0  0  0  0  0  0  0  0  0  0
  -19.4615  -39.2908   -9.3631 C   0  0  2  0  0  0  0  0  0  0  0  0
  -20.4946  -38.1691   -9.2109 C   0  0  0  0  0  0  0  0  0  0  0  0
  -19.7307  -40.1852  -10.4952 C   0  0  0  0  0  0  0  0  0  0  0  0
  -18.6537  -40.7858  -11.2656 C   0  0  0  0  0  0  0  0  0  0  0  0
  -19.0003  -41.8523  -12.2522 C   0  0  0  0  0  0  0  0  0  0  0  0
  -20.0802  -41.5338  -13.2025 C   0  0  0  0  0  0  0  0  0  0  0  0
  -21.2750  -42.3991  -13.2441 C   0  0  0  0  0  0  0  0  0  0  0  0
  -21.5524  -43.3620  -12.1894 C   0  0  0  0  0  0  0  0  0  0  0  0
  -20.7029  -44.4866  -11.9516 N   0  0  0  0  0  0  0  0  0  0  0  0
  -20.4529  -45.0044  -10.6555 N   0  0  0  0  0  0  0  0  0  0  0  0
  -20.0807  -44.3869   -9.4190 C   0  0  0  0  0  0  0  0  0  0  0  0
  -19.0341  -43.5965   -8.9789 C   0  0  0  0  0  0  0  0  0  0  0  0
  -19.0380  -43.2016   -7.6360 C   0  0  0  0  0  0  0  0  0  0  0  0
  -20.1126  -43.6391   -6.8197 C   0  0  0  0  0  0  0  0  0  0  0  0
  -21.1342  -44.4162   -7.2662 C   0  0  0  0  0  0  0  0  0  0  0  0
  -22.2437  -44.8441   -6.3387 C   0  0  0  0  0  0  0  0  0  0  0  0
  -21.0799  -44.7507   -8.5145 N   0  0  0  0  0  0  0  0  0  0  0  0
  -18.1326  -42.3806   -6.8262 C   0  0  0  0  0  0  0  0  0  0  0  0
  -17.9280  -42.8048   -5.5957 O   0  0  0  0  0  0  0  0  0  0  0  0
  -17.4011  -41.2042   -7.0543 N   0  0  0  0  0  0  0  0  0  0  0  0
  -20.0943  -45.1835  -13.0330 C   0  0  0  0  0  0  0  0  0  0  0  0
  -19.6746  -44.5311  -14.0861 O   0  0  0  0  0  0  0  0  0  0  0  0
  -19.8442  -46.5978  -13.1644 C   0  0  0  0  0  0  0  0  0  0  0  0
  -20.4946  -47.5496  -12.3902 C   0  0  0  0  0  0  0  0  0  0  0  0
  -20.1917  -48.8808  -12.5285 C   0  0  0  0  0  0  0  0  0  0  0  0
  -19.2327  -49.3181  -13.4397 C   0  0  0  0  0  0  0  0  0  0  0  0
  -18.9122  -50.6124  -13.5995 F   0  0  0  0  0  0  0  0  0  0  0  0
  -18.5765  -48.3901  -14.2167 C   0  0  0  0  0  0  0  0  0  0  0  0
  -18.8880  -47.0780  -14.0671 C   0  0  0  0  0  0  0  0  0  0  0  0
  -18.0129  -38.4128   -1.6055 C   0  0  0  0  0  0  0  0  0  0  0  0
  -18.3686  -37.6896   -0.4834 C   0  0  0  0  0  0  0  0  0  0  0  0
  -19.4192  -38.1009    0.2966 C   0  0  0  0  0  0  0  0  0  0  0  0
  1  2  1  0
  2  3  1  0
  2  4  1  0
  4  5  2  0
  5  6  1  0
  6  7  1  0
  7  8  1  0
  8  9  1  0
  9 10  1  0
 10 11  1  6
 10 12  1  0
 12 13  1  1
 13 14  1  0
 14 15  1  1
 14 16  1  0
 16 17  1  0
 17 18  1  0
 18 19  1  0
 19 20  1  0
 20 21  1  0
 21 22  1  0
 22 23  1  0
 23 24  1  0
 24 25  2  0
 25 26  1  0
 26 27  2  0
 27 28  1  0
 28 29  1  0
 28 30  2  0
 26 31  1  0
 31 32  2  0
 31 33  1  0
 22 34  1  0
 34 35  2  0
 34 36  1  0
 36 37  2  0
 37 38  1  0
 38 39  2  0
 39 40  1  0
 39 41  1  0
 41 42  2  0
  6 43  2  0
 43 44  1  0
 44 45  2  0
 30 24  1  0
 33 12  1  0
 42 36  1  0
 45  4  1  0
M  END
$$$$
