
     RDKit          3D

 45 48  0  0  0  0  0  0  0  0999 V2000
  -10.2414  -36.4643  -10.4945 C   0  0  0  0  0  0  0  0  0  0  0  0
  -11.2215  -37.5691  -10.7677 C   0  0  0  0  0  0  0  0  0  0  0  0
  -10.6580  -38.4689  -11.8683 C   0  0  0  0  0  0  0  0  0  0  0  0
  -12.5406  -37.0795  -11.2441 C   0  0  0  0  0  0  0  0  0  0  0  0
  -13.6871  -37.6332  -10.7296 C   0  0  0  0  0  0  0  0  0  0  0  0
  -14.9340  -37.2095  -11.1328 C   0  0  0  0  0  0  0  0  0  0  0  0
  -16.1823  -37.8236  -10.5644 C   0  0  0  0  0  0  0  0  0  0  0  0
  -15.8157  -38.9160   -9.7318 N   0  0  0  0  0  0  0  0  0  0  0  0
  -15.6017  -38.6210   -8.3432 C   0  0  0  0  0  0  0  0  0  0  0  0
  -16.8056  -38.3598   -7.5471 C   0  0  1  0  0  0  0  0  0  0  0  0
  -17.4165  -37.1538   -7.8378 O   0  0  0  0  0  0  0  0  0  0  0  0
  -17.8870  -39.4457   -7.6948 C   0  0  2  0  0  0  0  0  0  0  0  0
  -18.1916  -40.0095   -6.3547 C   0  0  0  0  0  0  0  0  0  0  0  0
  -19.4829  -39.6238   -5.7372 C   0  0  2  0  0  0  0  0  0  0  0  0
  -19.1668  -39.0695   -4.3438 C   0  0  0  0  0  0  0  0  0  0  0  0
  -20.6217  -40.5495   -5.7547 C   0  0  0  0  0  0  0  0  0  0  0  0
  -21.5311  -40.6186   -6.8872 C   0  0  0  0  0  0  0  0  0  0  0  0
  -22.5255  -41.7323   -6.9279 C   0  0  0  0  0  0  0  0  0  0  0  0
  -23.3382  -41.9240   -5.7140 C   0  0  0  0  0  0  0  0  0  0  0  0
  -23.2936  -43.2264   -5.0213 C   0  0  0  0  0  0  0  0  0  0  0  0
  -22.2632  -44.2096   -5.3182 C   0  0  0  0  0  0  0  0  0  0  0  0
  -22.1724  -44.8457   -6.5949 N   0  0  0  0  0  0  0  0  0  0  0  0
  -20.9372  -45.1965   -7.1962 N   0  0  0  0  0  0  0  0  0  0  0  0
  -19.7191  -44.4739   -7.4037 C   0  0  0  0  0  0  0  0  0  0  0  0
  -19.3557  -43.3025   -8.0438 C   0  0  0  0  0  0  0  0  0  0  0  0
  -18.0026  -42.9448   -8.0255 C   0  0  0  0  0  0  0  0  0  0  0  0
  -17.0982  -43.8071   -7.3540 C   0  0  0  0  0  0  0  0  0  0  0  0
  -17.4699  -44.9556   -6.7297 C   0  0  0  0  0  0  0  0  0  0  0  0
  -16.4508  -45.8242   -6.0359 C   0  0  0  0  0  0  0  0  0  0  0  0
  -18.7316  -45.2365   -6.7776 N   0  0  0  0  0  0  0  0  0  0  0  0
  -17.2555  -41.8067   -8.5696 C   0  0  0  0  0  0  0  0  0  0  0  0
  -16.0760  -42.0934   -9.0818 O   0  0  0  0  0  0  0  0  0  0  0  0
  -17.5034  -40.4293   -8.6816 N   0  0  0  0  0  0  0  0  0  0  0  0
  -23.3453  -45.2082   -7.3151 C   0  0  0  0  0  0  0  0  0  0  0  0
  -23.2632  -45.5784   -8.5669 O   0  0  0  0  0  0  0  0  0  0  0  0
  -24.7110  -45.2384   -6.8530 C   0  0  0  0  0  0  0  0  0  0  0  0
  -25.2756  -46.3567   -6.2539 C   0  0  0  0  0  0  0  0  0  0  0  0
  -26.5919  -46.3457   -5.8665 C   0  0  0  0  0  0  0  0  0  0  0  0
  -27.3978  -45.2255   -6.0584 C   0  0  0  0  0  0  0  0  0  0  0  0
  -28.6889  -45.1818   -5.6917 F   0  0  0  0  0  0  0  0  0  0  0  0
  -26.8569  -44.1064   -6.6508 C   0  0  0  0  0  0  0  0  0  0  0  0
  -25.5538  -44.1343   -7.0279 C   0  0  0  0  0  0  0  0  0  0  0  0
  -15.0261  -36.1991  -12.0819 C   0  0  0  0  0  0  0  0  0  0  0  0
  -13.8782  -35.6362  -12.6054 C   0  0  0  0  0  0  0  0  0  0  0  0
  -12.6459  -36.0724  -12.1902 C   0  0  0  0  0  0  0  0  0  0  0  0
  1  2  1  0
  2  3  1  0
  2  4  1  0
  4  5  2  0
  5  6  1  0
  6  7  1  0
  7  8  1  0
  8  9  1  0
  9 10  1  0
 10 11  1  6
 10 12  1  0
 12 13  1  1
 13 14  1  0
 14 15  1  1
 14 16  1  0
 16 17  1  0
 17 18  1  0
 18 19  1  0
 19 20  1  0
 20 21  1  0
 21 22  1  0
 22 23  1  0
 23 24  1  0
 24 25  2  0
 25 26  1  0
 26 27  2  0
 27 28  1  0
 28 29  1  0
 28 30  2  0
 26 31  1  0
 31 32  2  0
 31 33  1  0
 22 34  1  0
 34 35  2  0
 34 36  1  0
 36 37  2  0
 37 38  1  0
 38 39  2  0
 39 40  1  0
 39 41  1  0
 41 42  2  0
  6 43  2  0
 43 44  1  0
 44 45  2  0
 30 24  1  0
 33 12  1  0
 42 36  1  0
 45  4  1  0
M  END
$$$$
