
     RDKit          3D

 45 48  0  0  0  0  0  0  0  0999 V2000
  -10.9345  -35.5413  -11.3312 C   0  0  0  0  0  0  0  0  0  0  0  0
  -11.8502  -35.7212  -12.5080 C   0  0  0  0  0  0  0  0  0  0  0  0
  -12.8655  -34.5777  -12.5236 C   0  0  0  0  0  0  0  0  0  0  0  0
  -12.6266  -36.9867  -12.4600 C   0  0  0  0  0  0  0  0  0  0  0  0
  -13.7525  -37.0533  -11.6767 C   0  0  0  0  0  0  0  0  0  0  0  0
  -14.5108  -38.2007  -11.6035 C   0  0  0  0  0  0  0  0  0  0  0  0
  -15.7403  -38.2633  -10.7416 C   0  0  0  0  0  0  0  0  0  0  0  0
  -15.4081  -37.8039   -9.4378 N   0  0  0  0  0  0  0  0  0  0  0  0
  -15.5446  -38.7525   -8.3691 C   0  0  0  0  0  0  0  0  0  0  0  0
  -16.7010  -38.5665   -7.4862 C   0  0  1  0  0  0  0  0  0  0  0  0
  -17.2723  -37.3100   -7.5716 O   0  0  0  0  0  0  0  0  0  0  0  0
  -17.8327  -39.5803   -7.7347 C   0  0  2  0  0  0  0  0  0  0  0  0
  -18.3254  -40.0843   -6.4272 C   0  0  0  0  0  0  0  0  0  0  0  0
  -19.6476  -39.5949   -5.9693 C   0  0  2  0  0  0  0  0  0  0  0  0
  -19.4523  -39.0245   -4.5603 C   0  0  0  0  0  0  0  0  0  0  0  0
  -20.8396  -40.4414   -6.0983 C   0  0  0  0  0  0  0  0  0  0  0  0
  -21.6182  -40.4804   -7.3257 C   0  0  0  0  0  0  0  0  0  0  0  0
  -22.6776  -41.5250   -7.4573 C   0  0  0  0  0  0  0  0  0  0  0  0
  -23.6335  -41.6271   -6.3408 C   0  0  0  0  0  0  0  0  0  0  0  0
  -23.7591  -42.9096   -5.6214 C   0  0  0  0  0  0  0  0  0  0  0  0
  -22.7738  -43.9682   -5.7787 C   0  0  0  0  0  0  0  0  0  0  0  0
  -22.5847  -44.6446   -7.0235 N   0  0  0  0  0  0  0  0  0  0  0  0
  -21.3175  -45.0949   -7.4724 N   0  0  0  0  0  0  0  0  0  0  0  0
  -20.0358  -44.4627   -7.5538 C   0  0  0  0  0  0  0  0  0  0  0  0
  -19.5210  -43.3370   -8.1715 C   0  0  0  0  0  0  0  0  0  0  0  0
  -18.1567  -43.0714   -8.0058 C   0  0  0  0  0  0  0  0  0  0  0  0
  -17.3968  -43.9738   -7.2180 C   0  0  0  0  0  0  0  0  0  0  0  0
  -17.9166  -45.0765   -6.6173 C   0  0  0  0  0  0  0  0  0  0  0  0
  -17.0459  -45.9924   -5.7941 C   0  0  0  0  0  0  0  0  0  0  0  0
  -19.1814  -45.2726   -6.8035 N   0  0  0  0  0  0  0  0  0  0  0  0
  -17.2747  -42.0022   -8.4838 C   0  0  0  0  0  0  0  0  0  0  0  0
  -16.0681  -42.3825   -8.8518 O   0  0  0  0  0  0  0  0  0  0  0  0
  -17.4106  -40.6149   -8.6511 N   0  0  0  0  0  0  0  0  0  0  0  0
  -23.6916  -44.9468   -7.8657 C   0  0  0  0  0  0  0  0  0  0  0  0
  -23.5211  -45.0877   -9.1548 O   0  0  0  0  0  0  0  0  0  0  0  0
  -25.0732  -45.1401   -7.5003 C   0  0  0  0  0  0  0  0  0  0  0  0
  -25.4694  -45.4647   -6.2095 C   0  0  0  0  0  0  0  0  0  0  0  0
  -26.7947  -45.6754   -5.9233 C   0  0  0  0  0  0  0  0  0  0  0  0
  -27.7769  -45.5720   -6.9059 C   0  0  0  0  0  0  0  0  0  0  0  0
  -29.0819  -45.7723   -6.6597 F   0  0  0  0  0  0  0  0  0  0  0  0
  -27.4048  -45.2512   -8.1921 C   0  0  0  0  0  0  0  0  0  0  0  0
  -26.0901  -45.0463   -8.4579 C   0  0  0  0  0  0  0  0  0  0  0  0
  -14.1216  -39.3117  -12.3413 C   0  0  0  0  0  0  0  0  0  0  0  0
  -12.9902  -39.2542  -13.1320 C   0  0  0  0  0  0  0  0  0  0  0  0
  -12.2489  -38.1018  -13.1911 C   0  0  0  0  0  0  0  0  0  0  0  0
  1  2  1  0
  2  3  1  0
  2  4  1  0
  4  5  2  0
  5  6  1  0
  6  7  1  0
  7  8  1  0
  8  9  1  0
  9 10  1  0
 10 11  1  6
 10 12  1  0
 12 13  1  1
 13 14  1  0
 14 15  1  1
 14 16  1  0
 16 17  1  0
 17 18  1  0
 18 19  1  0
 19 20  1  0
 20 21  1  0
 21 22  1  0
 22 23  1  0
 23 24  1  0
 24 25  2  0
 25 26  1  0
 26 27  2  0
 27 28  1  0
 28 29  1  0
 28 30  2  0
 26 31  1  0
 31 32  2  0
 31 33  1  0
 22 34  1  0
 34 35  2  0
 34 36  1  0
 36 37  2  0
 37 38  1  0
 38 39  2  0
 39 40  1  0
 39 41  1  0
 41 42  2  0
  6 43  2  0
 43 44  1  0
 44 45  2  0
 30 24  1  0
 33 12  1  0
 42 36  1  0
 45  4  1  0
M  END
$$$$
