
     RDKit          3D

 45 48  0  0  0  0  0  0  0  0999 V2000
   -9.8445  -36.0650  -12.5955 C   0  0  0  0  0  0  0  0  0  0  0  0
  -10.8565  -35.6197  -11.5790 C   0  0  0  0  0  0  0  0  0  0  0  0
  -10.7232  -36.4955  -10.3324 C   0  0  0  0  0  0  0  0  0  0  0  0
  -12.2591  -35.7508  -12.0502 C   0  0  0  0  0  0  0  0  0  0  0  0
  -12.9429  -36.9161  -11.8046 C   0  0  0  0  0  0  0  0  0  0  0  0
  -14.2470  -37.0847  -12.2142 C   0  0  0  0  0  0  0  0  0  0  0  0
  -14.9854  -38.3649  -11.9416 C   0  0  0  0  0  0  0  0  0  0  0  0
  -14.5528  -38.8844  -10.6909 N   0  0  0  0  0  0  0  0  0  0  0  0
  -15.1872  -38.3489   -9.5197 C   0  0  0  0  0  0  0  0  0  0  0  0
  -16.5877  -37.9416   -9.6747 C   0  0  1  0  0  0  0  0  0  0  0  0
  -16.9067  -37.5132  -10.9502 O   0  0  0  0  0  0  0  0  0  0  0  0
  -17.5931  -39.0529   -9.3213 C   0  0  2  0  0  0  0  0  0  0  0  0
  -17.5894  -39.2575   -7.8501 C   0  0  0  0  0  0  0  0  0  0  0  0
  -18.7617  -38.7545   -7.0952 C   0  0  2  0  0  0  0  0  0  0  0  0
  -18.2241  -37.8517   -5.9795 C   0  0  0  0  0  0  0  0  0  0  0  0
  -19.8100  -39.6786   -6.6466 C   0  0  0  0  0  0  0  0  0  0  0  0
  -20.9138  -40.0587   -7.5134 C   0  0  0  0  0  0  0  0  0  0  0  0
  -21.8112  -41.1671   -7.0698 C   0  0  0  0  0  0  0  0  0  0  0  0
  -22.3568  -41.0566   -5.7057 C   0  0  0  0  0  0  0  0  0  0  0  0
  -22.0817  -42.1342   -4.7355 C   0  0  0  0  0  0  0  0  0  0  0  0
  -21.0578  -43.1373   -4.9846 C   0  0  0  0  0  0  0  0  0  0  0  0
  -21.1688  -44.0797   -6.0534 N   0  0  0  0  0  0  0  0  0  0  0  0
  -20.0507  -44.5462   -6.7902 N   0  0  0  0  0  0  0  0  0  0  0  0
  -18.9533  -43.8746   -7.4176 C   0  0  0  0  0  0  0  0  0  0  0  0
  -18.8093  -42.9007   -8.3895 C   0  0  0  0  0  0  0  0  0  0  0  0
  -17.5089  -42.5201   -8.7404 C   0  0  0  0  0  0  0  0  0  0  0  0
  -16.4297  -43.1588   -8.0771 C   0  0  0  0  0  0  0  0  0  0  0  0
  -16.5866  -44.1148   -7.1240 C   0  0  0  0  0  0  0  0  0  0  0  0
  -15.3904  -44.7512   -6.4617 C   0  0  0  0  0  0  0  0  0  0  0  0
  -17.8091  -44.4269   -6.8391 N   0  0  0  0  0  0  0  0  0  0  0  0
  -16.9684  -41.5449   -9.6925 C   0  0  0  0  0  0  0  0  0  0  0  0
  -15.8923  -41.9278  -10.3493 O   0  0  0  0  0  0  0  0  0  0  0  0
  -17.3354  -40.2493  -10.0898 N   0  0  0  0  0  0  0  0  0  0  0  0
  -22.4285  -44.6425   -6.4029 C   0  0  0  0  0  0  0  0  0  0  0  0
  -22.6114  -45.1674   -7.5868 O   0  0  0  0  0  0  0  0  0  0  0  0
  -23.6243  -44.7372   -5.6023 C   0  0  0  0  0  0  0  0  0  0  0  0
  -23.6349  -44.4843   -4.2369 C   0  0  0  0  0  0  0  0  0  0  0  0
  -24.7927  -44.6261   -3.5143 C   0  0  0  0  0  0  0  0  0  0  0  0
  -25.9835  -45.0238   -4.1184 C   0  0  0  0  0  0  0  0  0  0  0  0
  -27.1333  -45.1726   -3.4407 F   0  0  0  0  0  0  0  0  0  0  0  0
  -25.9941  -45.2795   -5.4712 C   0  0  0  0  0  0  0  0  0  0  0  0
  -24.8404  -45.1345   -6.1706 C   0  0  0  0  0  0  0  0  0  0  0  0
  -14.8782  -36.0484  -12.8907 C   0  0  0  0  0  0  0  0  0  0  0  0
  -14.1984  -34.8725  -13.1427 C   0  0  0  0  0  0  0  0  0  0  0  0
  -12.9000  -34.7246  -12.7261 C   0  0  0  0  0  0  0  0  0  0  0  0
  1  2  1  0
  2  3  1  0
  2  4  1  0
  4  5  2  0
  5  6  1  0
  6  7  1  0
  7  8  1  0
  8  9  1  0
  9 10  1  0
 10 11  1  6
 10 12  1  0
 12 13  1  1
 13 14  1  0
 14 15  1  1
 14 16  1  0
 16 17  1  0
 17 18  1  0
 18 19  1  0
 19 20  1  0
 20 21  1  0
 21 22  1  0
 22 23  1  0
 23 24  1  0
 24 25  2  0
 25 26  1  0
 26 27  2  0
 27 28  1  0
 28 29  1  0
 28 30  2  0
 26 31  1  0
 31 32  2  0
 31 33  1  0
 22 34  1  0
 34 35  2  0
 34 36  1  0
 36 37  2  0
 37 38  1  0
 38 39  2  0
 39 40  1  0
 39 41  1  0
 41 42  2  0
  6 43  2  0
 43 44  1  0
 44 45  2  0
 30 24  1  0
 33 12  1  0
 42 36  1  0
 45  4  1  0
M  END
$$$$
