
     RDKit          3D

 45 48  0  0  0  0  0  0  0  0999 V2000
  -14.1586  -33.3645  -12.4464 C   0  0  0  0  0  0  0  0  0  0  0  0
  -15.1806  -34.4598  -12.3377 C   0  0  0  0  0  0  0  0  0  0  0  0
  -15.7103  -34.5009  -10.9037 C   0  0  0  0  0  0  0  0  0  0  0  0
  -14.6305  -35.8077  -12.6330 C   0  0  0  0  0  0  0  0  0  0  0  0
  -14.3005  -36.6401  -11.5919 C   0  0  0  0  0  0  0  0  0  0  0  0
  -13.7940  -37.9017  -11.8127 C   0  0  0  0  0  0  0  0  0  0  0  0
  -13.4344  -38.8040  -10.6659 C   0  0  0  0  0  0  0  0  0  0  0  0
  -14.1791  -38.4072   -9.5217 N   0  0  0  0  0  0  0  0  0  0  0  0
  -15.5447  -38.8456   -9.4611 C   0  0  0  0  0  0  0  0  0  0  0  0
  -16.0710  -39.1310   -8.1221 C   0  0  1  0  0  0  0  0  0  0  0  0
  -16.2975  -38.0005   -7.3586 O   0  0  0  0  0  0  0  0  0  0  0  0
  -17.3921  -39.9216   -8.1373 C   0  0  2  0  0  0  0  0  0  0  0  0
  -17.6983  -40.3771   -6.7570 C   0  0  0  0  0  0  0  0  0  0  0  0
  -18.7945  -39.6799   -6.0431 C   0  0  2  0  0  0  0  0  0  0  0  0
  -18.2256  -39.2023   -4.7026 C   0  0  0  0  0  0  0  0  0  0  0  0
  -20.1201  -40.2995   -5.9292 C   0  0  0  0  0  0  0  0  0  0  0  0
  -21.1204  -40.1584   -6.9750 C   0  0  0  0  0  0  0  0  0  0  0  0
  -22.3542  -40.9958   -6.8902 C   0  0  0  0  0  0  0  0  0  0  0  0
  -23.0727  -40.9680   -5.6043 C   0  0  0  0  0  0  0  0  0  0  0  0
  -23.2807  -42.2331   -4.8733 C   0  0  0  0  0  0  0  0  0  0  0  0
  -22.5512  -43.4419   -5.2244 C   0  0  0  0  0  0  0  0  0  0  0  0
  -22.7362  -44.0968   -6.4812 N   0  0  0  0  0  0  0  0  0  0  0  0
  -21.6841  -44.7462   -7.1753 N   0  0  0  0  0  0  0  0  0  0  0  0
  -20.3520  -44.3458   -7.5131 C   0  0  0  0  0  0  0  0  0  0  0  0
  -19.7769  -43.3067   -8.2227 C   0  0  0  0  0  0  0  0  0  0  0  0
  -18.3818  -43.2902   -8.3348 C   0  0  0  0  0  0  0  0  0  0  0  0
  -17.6547  -44.3389   -7.7150 C   0  0  0  0  0  0  0  0  0  0  0  0
  -18.2338  -45.3539   -7.0212 C   0  0  0  0  0  0  0  0  0  0  0  0
  -17.3954  -46.4364   -6.3890 C   0  0  0  0  0  0  0  0  0  0  0  0
  -19.5248  -45.3187   -6.9492 N   0  0  0  0  0  0  0  0  0  0  0  0
  -17.4352  -42.3760   -8.9811 C   0  0  0  0  0  0  0  0  0  0  0  0
  -16.4131  -42.9487   -9.5839 O   0  0  0  0  0  0  0  0  0  0  0  0
  -17.3514  -40.9813   -9.1189 N   0  0  0  0  0  0  0  0  0  0  0  0
  -24.0237  -44.1707   -7.0836 C   0  0  0  0  0  0  0  0  0  0  0  0
  -24.1398  -44.2788   -8.3819 O   0  0  0  0  0  0  0  0  0  0  0  0
  -25.3173  -44.1467   -6.4465 C   0  0  0  0  0  0  0  0  0  0  0  0
  -25.9200  -42.9719   -6.0166 C   0  0  0  0  0  0  0  0  0  0  0  0
  -27.1357  -43.0084   -5.3812 C   0  0  0  0  0  0  0  0  0  0  0  0
  -27.7994  -44.2111   -5.1486 C   0  0  0  0  0  0  0  0  0  0  0  0
  -28.9891  -44.2821   -4.5296 F   0  0  0  0  0  0  0  0  0  0  0  0
  -27.2186  -45.3872   -5.5671 C   0  0  0  0  0  0  0  0  0  0  0  0
  -26.0162  -45.3330   -6.1935 C   0  0  0  0  0  0  0  0  0  0  0  0
  -13.6153  -38.3348  -13.1206 C   0  0  0  0  0  0  0  0  0  0  0  0
  -13.9443  -37.5043  -14.1745 C   0  0  0  0  0  0  0  0  0  0  0  0
  -14.4476  -36.2514  -13.9331 C   0  0  0  0  0  0  0  0  0  0  0  0
  1  2  1  0
  2  3  1  0
  2  4  1  0
  4  5  2  0
  5  6  1  0
  6  7  1  0
  7  8  1  0
  8  9  1  0
  9 10  1  0
 10 11  1  6
 10 12  1  0
 12 13  1  1
 13 14  1  0
 14 15  1  1
 14 16  1  0
 16 17  1  0
 17 18  1  0
 18 19  1  0
 19 20  1  0
 20 21  1  0
 21 22  1  0
 22 23  1  0
 23 24  1  0
 24 25  2  0
 25 26  1  0
 26 27  2  0
 27 28  1  0
 28 29  1  0
 28 30  2  0
 26 31  1  0
 31 32  2  0
 31 33  1  0
 22 34  1  0
 34 35  2  0
 34 36  1  0
 36 37  2  0
 37 38  1  0
 38 39  2  0
 39 40  1  0
 39 41  1  0
 41 42  2  0
  6 43  2  0
 43 44  1  0
 44 45  2  0
 30 24  1  0
 33 12  1  0
 42 36  1  0
 45  4  1  0
M  END
$$$$
