
     RDKit          3D

 45 48  0  0  0  0  0  0  0  0999 V2000
  -19.5633  -36.0943  -12.1080 C   0  0  0  0  0  0  0  0  0  0  0  0
  -18.4617  -36.2666  -11.1016 C   0  0  0  0  0  0  0  0  0  0  0  0
  -18.0649  -34.8914  -10.5630 C   0  0  0  0  0  0  0  0  0  0  0  0
  -17.2339  -36.8764  -11.6735 C   0  0  0  0  0  0  0  0  0  0  0  0
  -16.2667  -37.3576  -10.8257 C   0  0  0  0  0  0  0  0  0  0  0  0
  -15.1138  -37.9384  -11.3057 C   0  0  0  0  0  0  0  0  0  0  0  0
  -14.0610  -38.4603  -10.3689 C   0  0  0  0  0  0  0  0  0  0  0  0
  -14.6829  -39.3002   -9.4050 N   0  0  0  0  0  0  0  0  0  0  0  0
  -15.1980  -38.6564   -8.2299 C   0  0  0  0  0  0  0  0  0  0  0  0
  -15.5929  -39.5429   -7.1301 C   0  0  1  0  0  0  0  0  0  0  0  0
  -15.6219  -38.9217   -5.8950 O   0  0  0  0  0  0  0  0  0  0  0  0
  -16.9765  -40.1886   -7.3285 C   0  0  2  0  0  0  0  0  0  0  0  0
  -17.5048  -40.6142   -6.0071 C   0  0  0  0  0  0  0  0  0  0  0  0
  -18.6051  -39.8072   -5.4277 C   0  0  2  0  0  0  0  0  0  0  0  0
  -18.1675  -39.3979   -4.0172 C   0  0  0  0  0  0  0  0  0  0  0  0
  -19.9919  -40.2828   -5.4957 C   0  0  0  0  0  0  0  0  0  0  0  0
  -20.8280  -40.0322   -6.6586 C   0  0  0  0  0  0  0  0  0  0  0  0
  -22.1434  -40.7341   -6.7475 C   0  0  0  0  0  0  0  0  0  0  0  0
  -23.0154  -40.6349   -5.5641 C   0  0  0  0  0  0  0  0  0  0  0  0
  -23.4478  -41.8736   -4.8881 C   0  0  0  0  0  0  0  0  0  0  0  0
  -22.8099  -43.1516   -5.1639 C   0  0  0  0  0  0  0  0  0  0  0  0
  -22.8983  -43.7783   -6.4453 N   0  0  0  0  0  0  0  0  0  0  0  0
  -21.8392  -44.5332   -7.0099 N   0  0  0  0  0  0  0  0  0  0  0  0
  -20.4400  -44.2754   -7.1670 C   0  0  0  0  0  0  0  0  0  0  0  0
  -19.6720  -43.3007   -7.7786 C   0  0  0  0  0  0  0  0  0  0  0  0
  -18.2802  -43.4321   -7.7104 C   0  0  0  0  0  0  0  0  0  0  0  0
  -17.7535  -44.5545   -7.0210 C   0  0  0  0  0  0  0  0  0  0  0  0
  -18.5208  -45.5048   -6.4251 C   0  0  0  0  0  0  0  0  0  0  0  0
  -17.8895  -46.6728   -5.7096 C   0  0  0  0  0  0  0  0  0  0  0  0
  -19.7993  -45.3329   -6.5187 N   0  0  0  0  0  0  0  0  0  0  0  0
  -17.1673  -42.6212   -8.2139 C   0  0  0  0  0  0  0  0  0  0  0  0
  -16.1415  -43.2970   -8.6904 O   0  0  0  0  0  0  0  0  0  0  0  0
  -16.9205  -41.2428   -8.3153 N   0  0  0  0  0  0  0  0  0  0  0  0
  -24.0975  -43.7127   -7.2091 C   0  0  0  0  0  0  0  0  0  0  0  0
  -24.0541  -43.4136   -8.4816 O   0  0  0  0  0  0  0  0  0  0  0  0
  -25.4536  -43.9424   -6.7754 C   0  0  0  0  0  0  0  0  0  0  0  0
  -25.9217  -43.5397   -5.5316 C   0  0  0  0  0  0  0  0  0  0  0  0
  -27.2111  -43.8170   -5.1529 C   0  0  0  0  0  0  0  0  0  0  0  0
  -28.0848  -44.5037   -5.9933 C   0  0  0  0  0  0  0  0  0  0  0  0
  -29.3518  -44.7915   -5.6535 F   0  0  0  0  0  0  0  0  0  0  0  0
  -27.6399  -44.9117   -7.2307 C   0  0  0  0  0  0  0  0  0  0  0  0
  -26.3621  -44.6295   -7.5892 C   0  0  0  0  0  0  0  0  0  0  0  0
  -14.9321  -38.0359  -12.6796 C   0  0  0  0  0  0  0  0  0  0  0  0
  -15.8994  -37.5544  -13.5404 C   0  0  0  0  0  0  0  0  0  0  0  0
  -17.0406  -36.9796  -13.0420 C   0  0  0  0  0  0  0  0  0  0  0  0
  1  2  1  0
  2  3  1  0
  2  4  1  0
  4  5  2  0
  5  6  1  0
  6  7  1  0
  7  8  1  0
  8  9  1  0
  9 10  1  0
 10 11  1  1
 10 12  1  0
 12 13  1  1
 13 14  1  0
 14 15  1  1
 14 16  1  0
 16 17  1  0
 17 18  1  0
 18 19  1  0
 19 20  1  0
 20 21  1  0
 21 22  1  0
 22 23  1  0
 23 24  1  0
 24 25  2  0
 25 26  1  0
 26 27  2  0
 27 28  1  0
 28 29  1  0
 28 30  2  0
 26 31  1  0
 31 32  2  0
 31 33  1  0
 22 34  1  0
 34 35  2  0
 34 36  1  0
 36 37  2  0
 37 38  1  0
 38 39  2  0
 39 40  1  0
 39 41  1  0
 41 42  2  0
  6 43  2  0
 43 44  1  0
 44 45  2  0
 30 24  1  0
 33 12  1  0
 42 36  1  0
 45  4  1  0
M  END
$$$$
