
     RDKit          3D

 45 48  0  0  0  0  0  0  0  0999 V2000
  -12.3014  -36.8335  -13.7085 C   0  0  0  0  0  0  0  0  0  0  0  0
  -12.7892  -35.4430  -13.4179 C   0  0  0  0  0  0  0  0  0  0  0  0
  -11.6653  -34.6560  -12.7426 C   0  0  0  0  0  0  0  0  0  0  0  0
  -13.9534  -35.4097  -12.4959 C   0  0  0  0  0  0  0  0  0  0  0  0
  -13.8174  -35.9136  -11.2257 C   0  0  0  0  0  0  0  0  0  0  0  0
  -14.8640  -35.8995  -10.3306 C   0  0  0  0  0  0  0  0  0  0  0  0
  -14.7047  -36.4552   -8.9433 C   0  0  0  0  0  0  0  0  0  0  0  0
  -15.7793  -37.3489   -8.6831 N   0  0  0  0  0  0  0  0  0  0  0  0
  -16.1598  -38.2244   -9.7553 C   0  0  0  0  0  0  0  0  0  0  0  0
  -15.9528  -39.6575   -9.5212 C   0  0  1  0  0  0  0  0  0  0  0  0
  -15.0598  -39.9336   -8.5021 O   0  0  0  0  0  0  0  0  0  0  0  0
  -17.2487  -40.4185   -9.1866 C   0  0  2  0  0  0  0  0  0  0  0  0
  -18.2007  -39.4859   -8.5305 C   0  0  0  0  0  0  0  0  0  0  0  0
  -19.3602  -39.0289   -9.3331 C   0  0  2  0  0  0  0  0  0  0  0  0
  -19.3613  -37.4970   -9.2891 C   0  0  0  0  0  0  0  0  0  0  0  0
  -20.6870  -39.6216   -9.1275 C   0  0  0  0  0  0  0  0  0  0  0  0
  -21.0888  -40.8452   -9.8025 C   0  0  0  0  0  0  0  0  0  0  0  0
  -22.3594  -41.5035   -9.3749 C   0  0  0  0  0  0  0  0  0  0  0  0
  -23.5509  -40.6392   -9.3109 C   0  0  0  0  0  0  0  0  0  0  0  0
  -24.2720  -40.5084   -8.0299 C   0  0  0  0  0  0  0  0  0  0  0  0
  -23.6830  -40.9571   -6.7776 C   0  0  0  0  0  0  0  0  0  0  0  0
  -23.4100  -42.3369   -6.5235 N   0  0  0  0  0  0  0  0  0  0  0  0
  -22.2899  -42.7766   -5.7736 N   0  0  0  0  0  0  0  0  0  0  0  0
  -20.8973  -42.4500   -5.8273 C   0  0  0  0  0  0  0  0  0  0  0  0
  -19.9004  -42.5052   -6.7849 C   0  0  0  0  0  0  0  0  0  0  0  0
  -18.6170  -42.0897   -6.4115 C   0  0  0  0  0  0  0  0  0  0  0  0
  -18.4268  -41.6424   -5.0788 C   0  0  0  0  0  0  0  0  0  0  0  0
  -19.4162  -41.5942   -4.1484 C   0  0  0  0  0  0  0  0  0  0  0  0
  -19.1390  -41.1071   -2.7482 C   0  0  0  0  0  0  0  0  0  0  0  0
  -20.5812  -41.9892   -4.5481 N   0  0  0  0  0  0  0  0  0  0  0  0
  -17.3413  -41.9973   -7.1282 C   0  0  0  0  0  0  0  0  0  0  0  0
  -16.2743  -42.3426   -6.4366 O   0  0  0  0  0  0  0  0  0  0  0  0
  -16.9666  -41.6144   -8.4259 N   0  0  0  0  0  0  0  0  0  0  0  0
  -24.2961  -43.3527   -6.9804 C   0  0  0  0  0  0  0  0  0  0  0  0
  -23.9977  -44.6147   -6.8099 O   0  0  0  0  0  0  0  0  0  0  0  0
  -25.5658  -43.2048   -7.6482 C   0  0  0  0  0  0  0  0  0  0  0  0
  -26.7160  -43.8583   -7.2259 C   0  0  0  0  0  0  0  0  0  0  0  0
  -27.8906  -43.7130   -7.9201 C   0  0  0  0  0  0  0  0  0  0  0  0
  -27.9690  -42.9143   -9.0590 C   0  0  0  0  0  0  0  0  0  0  0  0
  -29.1019  -42.7511   -9.7614 F   0  0  0  0  0  0  0  0  0  0  0  0
  -26.8396  -42.2579   -9.4942 C   0  0  0  0  0  0  0  0  0  0  0  0
  -25.6865  -42.4127   -8.7961 C   0  0  0  0  0  0  0  0  0  0  0  0
  -16.0818  -35.3624  -10.7289 C   0  0  0  0  0  0  0  0  0  0  0  0
  -16.2283  -34.8535  -12.0048 C   0  0  0  0  0  0  0  0  0  0  0  0
  -15.1733  -34.8767  -12.8810 C   0  0  0  0  0  0  0  0  0  0  0  0
  1  2  1  0
  2  3  1  0
  2  4  1  0
  4  5  2  0
  5  6  1  0
  6  7  1  0
  7  8  1  0
  8  9  1  0
  9 10  1  0
 10 11  1  1
 10 12  1  0
 12 13  1  1
 13 14  1  0
 14 15  1  1
 14 16  1  0
 16 17  1  0
 17 18  1  0
 18 19  1  0
 19 20  1  0
 20 21  1  0
 21 22  1  0
 22 23  1  0
 23 24  1  0
 24 25  2  0
 25 26  1  0
 26 27  2  0
 27 28  1  0
 28 29  1  0
 28 30  2  0
 26 31  1  0
 31 32  2  0
 31 33  1  0
 22 34  1  0
 34 35  2  0
 34 36  1  0
 36 37  2  0
 37 38  1  0
 38 39  2  0
 39 40  1  0
 39 41  1  0
 41 42  2  0
  6 43  2  0
 43 44  1  0
 44 45  2  0
 30 24  1  0
 33 12  1  0
 42 36  1  0
 45  4  1  0
M  END
$$$$
