
     RDKit          3D

 45 48  0  0  0  0  0  0  0  0999 V2000
  -12.8694  -34.9277  -11.6025 C   0  0  0  0  0  0  0  0  0  0  0  0
  -12.4930  -35.8170  -12.7530 C   0  0  0  0  0  0  0  0  0  0  0  0
  -13.4325  -35.5324  -13.9255 C   0  0  0  0  0  0  0  0  0  0  0  0
  -12.6174  -37.2641  -12.4419 C   0  0  0  0  0  0  0  0  0  0  0  0
  -13.4776  -37.6651  -11.4495 C   0  0  0  0  0  0  0  0  0  0  0  0
  -13.6345  -38.9951  -11.1278 C   0  0  0  0  0  0  0  0  0  0  0  0
  -14.5775  -39.4228  -10.0386 C   0  0  0  0  0  0  0  0  0  0  0  0
  -14.7591  -38.3369   -9.1392 N   0  0  0  0  0  0  0  0  0  0  0  0
  -16.0291  -38.2599   -8.4744 C   0  0  0  0  0  0  0  0  0  0  0  0
  -16.2997  -39.3026   -7.4789 C   0  0  1  0  0  0  0  0  0  0  0  0
  -16.3010  -38.8426   -6.1748 O   0  0  0  0  0  0  0  0  0  0  0  0
  -17.6450  -40.0205   -7.6918 C   0  0  2  0  0  0  0  0  0  0  0  0
  -18.1406  -40.5159   -6.3821 C   0  0  0  0  0  0  0  0  0  0  0  0
  -19.2821  -39.7917   -5.7739 C   0  0  2  0  0  0  0  0  0  0  0  0
  -18.8608  -39.4011   -4.3531 C   0  0  0  0  0  0  0  0  0  0  0  0
  -20.6396  -40.3441   -5.8511 C   0  0  0  0  0  0  0  0  0  0  0  0
  -21.4953  -40.1067   -7.0025 C   0  0  0  0  0  0  0  0  0  0  0  0
  -22.7687  -40.8802   -7.1079 C   0  0  0  0  0  0  0  0  0  0  0  0
  -23.6383  -40.8676   -5.9186 C   0  0  0  0  0  0  0  0  0  0  0  0
  -23.9949  -42.1491   -5.2794 C   0  0  0  0  0  0  0  0  0  0  0  0
  -23.2862  -43.3793   -5.5968 C   0  0  0  0  0  0  0  0  0  0  0  0
  -23.3457  -43.9707   -6.8967 N   0  0  0  0  0  0  0  0  0  0  0  0
  -22.2481  -44.6457   -7.4883 N   0  0  0  0  0  0  0  0  0  0  0  0
  -20.8669  -44.3031   -7.6427 C   0  0  0  0  0  0  0  0  0  0  0  0
  -20.1597  -43.2675   -8.2270 C   0  0  0  0  0  0  0  0  0  0  0  0
  -18.7623  -43.3206   -8.1682 C   0  0  0  0  0  0  0  0  0  0  0  0
  -18.1681  -44.4313   -7.5157 C   0  0  0  0  0  0  0  0  0  0  0  0
  -18.8762  -45.4419   -6.9464 C   0  0  0  0  0  0  0  0  0  0  0  0
  -18.1748  -46.5929   -6.2696 C   0  0  0  0  0  0  0  0  0  0  0  0
  -20.1630  -45.3412   -7.0298 N   0  0  0  0  0  0  0  0  0  0  0  0
  -17.7007  -42.4320   -8.6508 C   0  0  0  0  0  0  0  0  0  0  0  0
  -16.6404  -43.0326   -9.1519 O   0  0  0  0  0  0  0  0  0  0  0  0
  -17.5341  -41.0392   -8.7107 N   0  0  0  0  0  0  0  0  0  0  0  0
  -24.5510  -43.9510   -7.6534 C   0  0  0  0  0  0  0  0  0  0  0  0
  -25.4891  -43.0821   -7.3781 O   0  0  0  0  0  0  0  0  0  0  0  0
  -24.9327  -44.7949   -8.7588 C   0  0  0  0  0  0  0  0  0  0  0  0
  -24.0924  -45.7669   -9.2855 C   0  0  0  0  0  0  0  0  0  0  0  0
  -24.4902  -46.5176  -10.3630 C   0  0  0  0  0  0  0  0  0  0  0  0
  -25.7361  -46.3327  -10.9587 C   0  0  0  0  0  0  0  0  0  0  0  0
  -26.1558  -47.0494  -12.0140 F   0  0  0  0  0  0  0  0  0  0  0  0
  -26.5840  -45.3739  -10.4514 C   0  0  0  0  0  0  0  0  0  0  0  0
  -26.1749  -44.6405   -9.3857 C   0  0  0  0  0  0  0  0  0  0  0  0
  -12.9025  -39.9465  -11.8271 C   0  0  0  0  0  0  0  0  0  0  0  0
  -12.0344  -39.5527  -12.8270 C   0  0  0  0  0  0  0  0  0  0  0  0
  -11.8929  -38.2229  -13.1321 C   0  0  0  0  0  0  0  0  0  0  0  0
  1  2  1  0
  2  3  1  0
  2  4  1  0
  4  5  2  0
  5  6  1  0
  6  7  1  0
  7  8  1  0
  8  9  1  0
  9 10  1  0
 10 11  1  1
 10 12  1  0
 12 13  1  1
 13 14  1  0
 14 15  1  1
 14 16  1  0
 16 17  1  0
 17 18  1  0
 18 19  1  0
 19 20  1  0
 20 21  1  0
 21 22  1  0
 22 23  1  0
 23 24  1  0
 24 25  2  0
 25 26  1  0
 26 27  2  0
 27 28  1  0
 28 29  1  0
 28 30  2  0
 26 31  1  0
 31 32  2  0
 31 33  1  0
 22 34  1  0
 34 35  2  0
 34 36  1  0
 36 37  2  0
 37 38  1  0
 38 39  2  0
 39 40  1  0
 39 41  1  0
 41 42  2  0
  6 43  2  0
 43 44  1  0
 44 45  2  0
 30 24  1  0
 33 12  1  0
 42 36  1  0
 45  4  1  0
M  END
$$$$
