
     RDKit          3D

 45 48  0  0  0  0  0  0  0  0999 V2000
  -11.3443  -36.0522  -16.8644 C   0  0  0  0  0  0  0  0  0  0  0  0
  -12.7248  -36.5855  -16.6081 C   0  0  0  0  0  0  0  0  0  0  0  0
  -13.6999  -35.4108  -16.5200 C   0  0  0  0  0  0  0  0  0  0  0  0
  -12.8369  -37.3358  -15.3311 C   0  0  0  0  0  0  0  0  0  0  0  0
  -12.7956  -36.6479  -14.1433 C   0  0  0  0  0  0  0  0  0  0  0  0
  -12.9025  -37.2960  -12.9328 C   0  0  0  0  0  0  0  0  0  0  0  0
  -12.8544  -36.5335  -11.6387 C   0  0  0  0  0  0  0  0  0  0  0  0
  -14.0757  -36.7403  -10.9410 N   0  0  0  0  0  0  0  0  0  0  0  0
  -14.1203  -37.8596  -10.0433 C   0  0  0  0  0  0  0  0  0  0  0  0
  -15.0239  -37.7293   -8.8952 C   0  0  1  0  0  0  0  0  0  0  0  0
  -15.6040  -36.4793   -8.7804 O   0  0  0  0  0  0  0  0  0  0  0  0
  -16.1776  -38.7489   -8.9030 C   0  0  2  0  0  0  0  0  0  0  0  0
  -16.6126  -38.9966   -7.5045 C   0  0  0  0  0  0  0  0  0  0  0  0
  -17.9057  -38.4059   -7.0845 C   0  0  2  0  0  0  0  0  0  0  0  0
  -17.6366  -37.5926   -5.8138 C   0  0  0  0  0  0  0  0  0  0  0  0
  -19.1119  -39.2380   -7.0027 C   0  0  0  0  0  0  0  0  0  0  0  0
  -19.9489  -39.4843   -8.1659 C   0  0  0  0  0  0  0  0  0  0  0  0
  -21.0251  -40.5142   -8.0565 C   0  0  0  0  0  0  0  0  0  0  0  0
  -21.9274  -40.3924   -6.8981 C   0  0  0  0  0  0  0  0  0  0  0  0
  -22.0327  -41.5198   -5.9516 C   0  0  0  0  0  0  0  0  0  0  0  0
  -21.0680  -42.6087   -5.9571 C   0  0  0  0  0  0  0  0  0  0  0  0
  -20.9466  -43.5039   -7.0646 N   0  0  0  0  0  0  0  0  0  0  0  0
  -19.7074  -44.0535   -7.4804 N   0  0  0  0  0  0  0  0  0  0  0  0
  -18.4242  -43.4722   -7.7337 C   0  0  0  0  0  0  0  0  0  0  0  0
  -17.9270  -42.4881   -8.5693 C   0  0  0  0  0  0  0  0  0  0  0  0
  -16.5534  -42.2239   -8.5167 C   0  0  0  0  0  0  0  0  0  0  0  0
  -15.7667  -42.9827   -7.6124 C   0  0  0  0  0  0  0  0  0  0  0  0
  -16.2694  -43.9472   -6.7975 C   0  0  0  0  0  0  0  0  0  0  0  0
  -15.3706  -44.7150   -5.8610 C   0  0  0  0  0  0  0  0  0  0  0  0
  -17.5439  -44.1488   -6.8874 N   0  0  0  0  0  0  0  0  0  0  0  0
  -15.6834  -41.2772   -9.2213 C   0  0  0  0  0  0  0  0  0  0  0  0
  -14.5002  -41.7420   -9.5678 O   0  0  0  0  0  0  0  0  0  0  0  0
  -15.8116  -39.9411   -9.6330 N   0  0  0  0  0  0  0  0  0  0  0  0
  -22.0959  -43.9324   -7.7865 C   0  0  0  0  0  0  0  0  0  0  0  0
  -22.0069  -44.2188   -9.0597 O   0  0  0  0  0  0  0  0  0  0  0  0
  -23.4425  -44.1186   -7.3052 C   0  0  0  0  0  0  0  0  0  0  0  0
  -24.5330  -43.4551   -7.8520 C   0  0  0  0  0  0  0  0  0  0  0  0
  -25.7892  -43.6392   -7.3314 C   0  0  0  0  0  0  0  0  0  0  0  0
  -26.0113  -44.4882   -6.2492 C   0  0  0  0  0  0  0  0  0  0  0  0
  -27.2269  -44.6902   -5.7156 F   0  0  0  0  0  0  0  0  0  0  0  0
  -24.9432  -45.1553   -5.6926 C   0  0  0  0  0  0  0  0  0  0  0  0
  -23.7079  -44.9617   -6.2196 C   0  0  0  0  0  0  0  0  0  0  0  0
  -13.0550  -38.6769  -12.9210 C   0  0  0  0  0  0  0  0  0  0  0  0
  -13.0974  -39.3776  -14.1108 C   0  0  0  0  0  0  0  0  0  0  0  0
  -12.9893  -38.7130  -15.3058 C   0  0  0  0  0  0  0  0  0  0  0  0
  1  2  1  0
  2  3  1  0
  2  4  1  0
  4  5  2  0
  5  6  1  0
  6  7  1  0
  7  8  1  0
  8  9  1  0
  9 10  1  0
 10 11  1  6
 10 12  1  0
 12 13  1  1
 13 14  1  0
 14 15  1  1
 14 16  1  0
 16 17  1  0
 17 18  1  0
 18 19  1  0
 19 20  1  0
 20 21  1  0
 21 22  1  0
 22 23  1  0
 23 24  1  0
 24 25  2  0
 25 26  1  0
 26 27  2  0
 27 28  1  0
 28 29  1  0
 28 30  2  0
 26 31  1  0
 31 32  2  0
 31 33  1  0
 22 34  1  0
 34 35  2  0
 34 36  1  0
 36 37  2  0
 37 38  1  0
 38 39  2  0
 39 40  1  0
 39 41  1  0
 41 42  2  0
  6 43  2  0
 43 44  1  0
 44 45  2  0
 30 24  1  0
 33 12  1  0
 42 36  1  0
 45  4  1  0
M  END
$$$$
