
     RDKit          3D

 45 48  0  0  0  0  0  0  0  0999 V2000
  -12.7902  -34.8704  -14.9446 C   0  0  0  0  0  0  0  0  0  0  0  0
  -14.1385  -35.5233  -14.8368 C   0  0  0  0  0  0  0  0  0  0  0  0
  -15.1573  -34.4800  -14.3760 C   0  0  0  0  0  0  0  0  0  0  0  0
  -14.1774  -36.6306  -13.8474 C   0  0  0  0  0  0  0  0  0  0  0  0
  -13.9737  -36.3500  -12.5186 C   0  0  0  0  0  0  0  0  0  0  0  0
  -14.0070  -37.3397  -11.5614 C   0  0  0  0  0  0  0  0  0  0  0  0
  -13.7811  -37.0218  -10.1100 C   0  0  0  0  0  0  0  0  0  0  0  0
  -14.2327  -38.1188   -9.3265 N   0  0  0  0  0  0  0  0  0  0  0  0
  -15.6519  -38.2373   -9.1461 C   0  0  0  0  0  0  0  0  0  0  0  0
  -16.0970  -38.7119   -7.8315 C   0  0  1  0  0  0  0  0  0  0  0  0
  -16.4081  -37.6955   -6.9470 O   0  0  0  0  0  0  0  0  0  0  0  0
  -17.3311  -39.6302   -7.8957 C   0  0  2  0  0  0  0  0  0  0  0  0
  -17.5523  -40.2362   -6.5577 C   0  0  0  0  0  0  0  0  0  0  0  0
  -18.6939  -39.7225   -5.7638 C   0  0  2  0  0  0  0  0  0  0  0  0
  -18.1404  -39.3103   -4.3955 C   0  0  0  0  0  0  0  0  0  0  0  0
  -19.9464  -40.4834   -5.6838 C   0  0  0  0  0  0  0  0  0  0  0  0
  -20.9837  -40.3536   -6.6945 C   0  0  0  0  0  0  0  0  0  0  0  0
  -22.1235  -41.3182   -6.6650 C   0  0  0  0  0  0  0  0  0  0  0  0
  -22.8063  -41.4797   -5.3695 C   0  0  0  0  0  0  0  0  0  0  0  0
  -22.8653  -42.8197   -4.7538 C   0  0  0  0  0  0  0  0  0  0  0  0
  -22.0269  -43.9104   -5.2269 C   0  0  0  0  0  0  0  0  0  0  0  0
  -22.1784  -44.4661   -6.5350 N   0  0  0  0  0  0  0  0  0  0  0  0
  -21.0850  -44.9388   -7.3041 N   0  0  0  0  0  0  0  0  0  0  0  0
  -19.8099  -44.3744   -7.6272 C   0  0  0  0  0  0  0  0  0  0  0  0
  -19.3623  -43.2223   -8.2487 C   0  0  0  0  0  0  0  0  0  0  0  0
  -17.9795  -43.0518   -8.3833 C   0  0  0  0  0  0  0  0  0  0  0  0
  -17.1335  -44.0709   -7.8751 C   0  0  0  0  0  0  0  0  0  0  0  0
  -17.5880  -45.1981   -7.2670 C   0  0  0  0  0  0  0  0  0  0  0  0
  -16.6276  -46.2404   -6.7515 C   0  0  0  0  0  0  0  0  0  0  0  0
  -18.8735  -45.3030   -7.1694 N   0  0  0  0  0  0  0  0  0  0  0  0
  -17.1482  -41.9907   -8.9599 C   0  0  0  0  0  0  0  0  0  0  0  0
  -16.0899  -42.3986   -9.6304 O   0  0  0  0  0  0  0  0  0  0  0  0
  -17.2098  -40.5881   -8.9708 N   0  0  0  0  0  0  0  0  0  0  0  0
  -23.4675  -44.6185   -7.1188 C   0  0  0  0  0  0  0  0  0  0  0  0
  -23.6333  -44.4522   -8.4055 O   0  0  0  0  0  0  0  0  0  0  0  0
  -24.7128  -44.9544   -6.4737 C   0  0  0  0  0  0  0  0  0  0  0  0
  -25.5763  -43.9940   -5.9636 C   0  0  0  0  0  0  0  0  0  0  0  0
  -26.7313  -44.3690   -5.3247 C   0  0  0  0  0  0  0  0  0  0  0  0
  -27.0735  -45.7105   -5.1678 C   0  0  0  0  0  0  0  0  0  0  0  0
  -28.1952  -46.1114   -4.5477 F   0  0  0  0  0  0  0  0  0  0  0  0
  -26.2307  -46.6782   -5.6665 C   0  0  0  0  0  0  0  0  0  0  0  0
  -25.0927  -46.2899   -6.2953 C   0  0  0  0  0  0  0  0  0  0  0  0
  -14.2522  -38.6488  -11.9564 C   0  0  0  0  0  0  0  0  0  0  0  0
  -14.4580  -38.9408  -13.2909 C   0  0  0  0  0  0  0  0  0  0  0  0
  -14.4210  -37.9405  -14.2286 C   0  0  0  0  0  0  0  0  0  0  0  0
  1  2  1  0
  2  3  1  0
  2  4  1  0
  4  5  2  0
  5  6  1  0
  6  7  1  0
  7  8  1  0
  8  9  1  0
  9 10  1  0
 10 11  1  1
 10 12  1  0
 12 13  1  1
 13 14  1  0
 14 15  1  1
 14 16  1  0
 16 17  1  0
 17 18  1  0
 18 19  1  0
 19 20  1  0
 20 21  1  0
 21 22  1  0
 22 23  1  0
 23 24  1  0
 24 25  2  0
 25 26  1  0
 26 27  2  0
 27 28  1  0
 28 29  1  0
 28 30  2  0
 26 31  1  0
 31 32  2  0
 31 33  1  0
 22 34  1  0
 34 35  2  0
 34 36  1  0
 36 37  2  0
 37 38  1  0
 38 39  2  0
 39 40  1  0
 39 41  1  0
 41 42  2  0
  6 43  2  0
 43 44  1  0
 44 45  2  0
 30 24  1  0
 33 12  1  0
 42 36  1  0
 45  4  1  0
M  END
$$$$
