
     RDKit          3D

 45 48  0  0  0  0  0  0  0  0999 V2000
  -11.2761  -34.0003  -12.8869 C   0  0  0  0  0  0  0  0  0  0  0  0
  -12.2056  -34.6079  -11.8755 C   0  0  0  0  0  0  0  0  0  0  0  0
  -11.6840  -34.2927  -10.4729 C   0  0  0  0  0  0  0  0  0  0  0  0
  -12.3000  -36.0867  -11.9784 C   0  0  0  0  0  0  0  0  0  0  0  0
  -12.2197  -36.8449  -10.8362 C   0  0  0  0  0  0  0  0  0  0  0  0
  -12.3089  -38.2186  -10.8773 C   0  0  0  0  0  0  0  0  0  0  0  0
  -12.2180  -39.0389   -9.6213 C   0  0  0  0  0  0  0  0  0  0  0  0
  -13.3114  -38.7035   -8.7766 N   0  0  0  0  0  0  0  0  0  0  0  0
  -14.6232  -38.8232   -9.3472 C   0  0  0  0  0  0  0  0  0  0  0  0
  -15.7342  -38.3540   -8.5124 C   0  0  1  0  0  0  0  0  0  0  0  0
  -16.2291  -37.1177   -8.8850 O   0  0  0  0  0  0  0  0  0  0  0  0
  -16.9346  -39.3178   -8.4892 C   0  0  2  0  0  0  0  0  0  0  0  0
  -17.8524  -38.9200   -7.3911 C   0  0  0  0  0  0  0  0  0  0  0  0
  -19.1245  -38.2645   -7.7780 C   0  0  2  0  0  0  0  0  0  0  0  0
  -19.2080  -36.9490   -6.9962 C   0  0  0  0  0  0  0  0  0  0  0  0
  -20.3807  -39.0234   -7.7832 C   0  0  0  0  0  0  0  0  0  0  0  0
  -20.7901  -39.8129   -8.9336 C   0  0  0  0  0  0  0  0  0  0  0  0
  -21.9601  -40.7287   -8.7817 C   0  0  0  0  0  0  0  0  0  0  0  0
  -23.1827  -40.1343   -8.2136 C   0  0  0  0  0  0  0  0  0  0  0  0
  -23.7504  -40.7087   -6.9784 C   0  0  0  0  0  0  0  0  0  0  0  0
  -22.9900  -41.6330   -6.1514 C   0  0  0  0  0  0  0  0  0  0  0  0
  -22.6098  -42.9283   -6.6210 N   0  0  0  0  0  0  0  0  0  0  0  0
  -21.3841  -43.5479   -6.2686 N   0  0  0  0  0  0  0  0  0  0  0  0
  -20.0292  -43.0864   -6.2654 C   0  0  0  0  0  0  0  0  0  0  0  0
  -19.1535  -42.5702   -7.2037 C   0  0  0  0  0  0  0  0  0  0  0  0
  -17.8603  -42.2465   -6.7769 C   0  0  0  0  0  0  0  0  0  0  0  0
  -17.5367  -42.4706   -5.4140 C   0  0  0  0  0  0  0  0  0  0  0  0
  -18.4079  -42.9792   -4.5033 C   0  0  0  0  0  0  0  0  0  0  0  0
  -17.9922  -43.1912   -3.0691 C   0  0  0  0  0  0  0  0  0  0  0  0
  -19.5881  -43.2595   -4.9523 N   0  0  0  0  0  0  0  0  0  0  0  0
  -16.6877  -41.6861   -7.4556 C   0  0  0  0  0  0  0  0  0  0  0  0
  -15.5271  -42.2013   -7.1040 O   0  0  0  0  0  0  0  0  0  0  0  0
  -16.4948  -40.6930   -8.4292 N   0  0  0  0  0  0  0  0  0  0  0  0
  -23.4849  -43.6929   -7.4428 C   0  0  0  0  0  0  0  0  0  0  0  0
  -23.0002  -44.5287   -8.3245 O   0  0  0  0  0  0  0  0  0  0  0  0
  -24.9269  -43.6978   -7.4603 C   0  0  0  0  0  0  0  0  0  0  0  0
  -25.6836  -44.5611   -6.6788 C   0  0  0  0  0  0  0  0  0  0  0  0
  -27.0532  -44.5510   -6.7616 C   0  0  0  0  0  0  0  0  0  0  0  0
  -27.7240  -43.6845   -7.6220 C   0  0  0  0  0  0  0  0  0  0  0  0
  -29.0623  -43.6494   -7.7277 F   0  0  0  0  0  0  0  0  0  0  0  0
  -26.9920  -42.8207   -8.4053 C   0  0  0  0  0  0  0  0  0  0  0  0
  -25.6386  -42.8439   -8.3112 C   0  0  0  0  0  0  0  0  0  0  0  0
  -12.4836  -38.8444  -12.1053 C   0  0  0  0  0  0  0  0  0  0  0  0
  -12.5652  -38.0901  -13.2597 C   0  0  0  0  0  0  0  0  0  0  0  0
  -12.4743  -36.7229  -13.1972 C   0  0  0  0  0  0  0  0  0  0  0  0
  1  2  1  0
  2  3  1  0
  2  4  1  0
  4  5  2  0
  5  6  1  0
  6  7  1  0
  7  8  1  0
  8  9  1  0
  9 10  1  0
 10 11  1  6
 10 12  1  0
 12 13  1  1
 13 14  1  0
 14 15  1  1
 14 16  1  0
 16 17  1  0
 17 18  1  0
 18 19  1  0
 19 20  1  0
 20 21  1  0
 21 22  1  0
 22 23  1  0
 23 24  1  0
 24 25  2  0
 25 26  1  0
 26 27  2  0
 27 28  1  0
 28 29  1  0
 28 30  2  0
 26 31  1  0
 31 32  2  0
 31 33  1  0
 22 34  1  0
 34 35  2  0
 34 36  1  0
 36 37  2  0
 37 38  1  0
 38 39  2  0
 39 40  1  0
 39 41  1  0
 41 42  2  0
  6 43  2  0
 43 44  1  0
 44 45  2  0
 30 24  1  0
 33 12  1  0
 42 36  1  0
 45  4  1  0
M  END
$$$$
