
     RDKit          3D

 45 48  0  0  0  0  0  0  0  0999 V2000
  -11.7797  -42.0409  -11.7575 C   0  0  0  0  0  0  0  0  0  0  0  0
  -13.1828  -42.0953  -11.2241 C   0  0  0  0  0  0  0  0  0  0  0  0
  -13.8621  -43.3611  -11.7484 C   0  0  0  0  0  0  0  0  0  0  0  0
  -14.0199  -40.9464  -11.6552 C   0  0  0  0  0  0  0  0  0  0  0  0
  -13.8316  -39.7208  -11.0650 C   0  0  0  0  0  0  0  0  0  0  0  0
  -14.5767  -38.6229  -11.4341 C   0  0  0  0  0  0  0  0  0  0  0  0
  -14.3636  -37.2865  -10.7805 C   0  0  0  0  0  0  0  0  0  0  0  0
  -15.5166  -36.9640  -10.0138 N   0  0  0  0  0  0  0  0  0  0  0  0
  -16.1581  -38.0518   -9.3312 C   0  0  0  0  0  0  0  0  0  0  0  0
  -17.3489  -37.7077   -8.5469 C   0  0  1  0  0  0  0  0  0  0  0  0
  -18.0153  -36.5865   -9.0063 O   0  0  0  0  0  0  0  0  0  0  0  0
  -18.3898  -38.8403   -8.4821 C   0  0  2  0  0  0  0  0  0  0  0  0
  -18.4877  -39.3268   -7.0820 C   0  0  0  0  0  0  0  0  0  0  0  0
  -19.7016  -38.9500   -6.3192 C   0  0  2  0  0  0  0  0  0  0  0  0
  -19.2286  -38.2952   -5.0168 C   0  0  0  0  0  0  0  0  0  0  0  0
  -20.7893  -39.9165   -6.1273 C   0  0  0  0  0  0  0  0  0  0  0  0
  -21.8371  -40.0927   -7.1199 C   0  0  0  0  0  0  0  0  0  0  0  0
  -22.7763  -41.2428   -6.9594 C   0  0  0  0  0  0  0  0  0  0  0  0
  -23.4109  -41.3854   -5.6373 C   0  0  0  0  0  0  0  0  0  0  0  0
  -23.2154  -42.6375   -4.8811 C   0  0  0  0  0  0  0  0  0  0  0  0
  -22.1900  -43.5990   -5.2560 C   0  0  0  0  0  0  0  0  0  0  0  0
  -22.2408  -44.3128   -6.4932 N   0  0  0  0  0  0  0  0  0  0  0  0
  -21.0819  -44.6558   -7.2345 N   0  0  0  0  0  0  0  0  0  0  0  0
  -19.9363  -43.9036   -7.6476 C   0  0  0  0  0  0  0  0  0  0  0  0
  -19.7149  -42.7635   -8.3993 C   0  0  0  0  0  0  0  0  0  0  0  0
  -18.3891  -42.3553   -8.5858 C   0  0  0  0  0  0  0  0  0  0  0  0
  -17.3651  -43.1381   -7.9931 C   0  0  0  0  0  0  0  0  0  0  0  0
  -17.5979  -44.2566   -7.2572 C   0  0  0  0  0  0  0  0  0  0  0  0
  -16.4571  -45.0399   -6.6575 C   0  0  0  0  0  0  0  0  0  0  0  0
  -18.8407  -44.5867   -7.1169 N   0  0  0  0  0  0  0  0  0  0  0  0
  -17.7735  -41.2280   -9.2927 C   0  0  0  0  0  0  0  0  0  0  0  0
  -16.6606  -41.5034   -9.9421 O   0  0  0  0  0  0  0  0  0  0  0  0
  -18.0964  -39.8709   -9.4516 N   0  0  0  0  0  0  0  0  0  0  0  0
  -23.4813  -44.7646   -7.0251 C   0  0  0  0  0  0  0  0  0  0  0  0
  -23.6036  -45.0009   -8.3057 O   0  0  0  0  0  0  0  0  0  0  0  0
  -24.7167  -45.0261   -6.3283 C   0  0  0  0  0  0  0  0  0  0  0  0
  -25.6423  -44.0310   -6.0433 C   0  0  0  0  0  0  0  0  0  0  0  0
  -26.7851  -44.3266   -5.3437 C   0  0  0  0  0  0  0  0  0  0  0  0
  -27.0531  -45.6201   -4.9007 C   0  0  0  0  0  0  0  0  0  0  0  0
  -28.1608  -45.9430   -4.2136 F   0  0  0  0  0  0  0  0  0  0  0  0
  -26.1478  -46.6211   -5.1730 C   0  0  0  0  0  0  0  0  0  0  0  0
  -25.0230  -46.3114   -5.8657 C   0  0  0  0  0  0  0  0  0  0  0  0
  -15.5387  -38.7662  -12.4261 C   0  0  0  0  0  0  0  0  0  0  0  0
  -15.7355  -39.9953  -13.0254 C   0  0  0  0  0  0  0  0  0  0  0  0
  -14.9827  -41.0763  -12.6434 C   0  0  0  0  0  0  0  0  0  0  0  0
  1  2  1  0
  2  3  1  0
  2  4  1  0
  4  5  2  0
  5  6  1  0
  6  7  1  0
  7  8  1  0
  8  9  1  0
  9 10  1  0
 10 11  1  6
 10 12  1  0
 12 13  1  1
 13 14  1  0
 14 15  1  1
 14 16  1  0
 16 17  1  0
 17 18  1  0
 18 19  1  0
 19 20  1  0
 20 21  1  0
 21 22  1  0
 22 23  1  0
 23 24  1  0
 24 25  2  0
 25 26  1  0
 26 27  2  0
 27 28  1  0
 28 29  1  0
 28 30  2  0
 26 31  1  0
 31 32  2  0
 31 33  1  0
 22 34  1  0
 34 35  2  0
 34 36  1  0
 36 37  2  0
 37 38  1  0
 38 39  2  0
 39 40  1  0
 39 41  1  0
 41 42  2  0
  6 43  2  0
 43 44  1  0
 44 45  2  0
 30 24  1  0
 33 12  1  0
 42 36  1  0
 45  4  1  0
M  END
$$$$
