
     RDKit          3D

 40 43  0  0  0  0  0  0  0  0999 V2000
  -18.7664  -49.1389   -6.3306 C   0  0  0  0  0  0  0  0  0  0  0  0
  -18.2456  -47.9387   -6.8082 O   0  0  0  0  0  0  0  0  0  0  0  0
  -19.0572  -47.3478   -7.7499 C   0  0  0  0  0  0  0  0  0  0  0  0
  -19.3476  -45.9440   -7.3878 C   0  0  0  0  0  0  0  0  0  0  0  0
  -20.6085  -45.5209   -7.0686 C   0  0  0  0  0  0  0  0  0  0  0  0
  -20.9075  -44.1760   -6.7176 C   0  0  0  0  0  0  0  0  0  0  0  0
  -19.9110  -43.2258   -6.6818 C   0  0  0  0  0  0  0  0  0  0  0  0
  -18.6277  -43.6224   -7.0027 C   0  0  0  0  0  0  0  0  0  0  0  0
  -18.3839  -44.9811   -7.3476 C   0  0  0  0  0  0  0  0  0  0  0  0
  -17.3675  -42.8771   -7.1065 C   0  0  0  0  0  0  0  0  0  0  0  0
  -16.2755  -43.4523   -6.6626 O   0  0  0  0  0  0  0  0  0  0  0  0
  -17.0473  -41.5981   -7.6130 N   0  0  0  0  0  0  0  0  0  0  0  0
  -17.8769  -40.8927   -8.6146 C   0  0  1  0  0  0  0  0  0  0  0  0
  -18.4077  -39.6357   -8.0790 C   0  0  0  0  0  0  0  0  0  0  0  0
  -19.8213  -39.2129   -8.2419 C   0  0  0  0  0  0  0  0  0  0  0  0
  -20.9723  -39.9303   -8.2374 C   0  0  0  0  0  0  0  0  0  0  0  0
  -22.1795  -39.2302   -8.3542 C   0  0  0  0  0  0  0  0  0  0  0  0
  -22.1900  -37.8455   -8.4763 C   0  0  0  0  0  0  0  0  0  0  0  0
  -21.0416  -37.0833   -8.4872 C   0  0  0  0  0  0  0  0  0  0  0  0
  -19.8857  -37.7949   -8.3682 C   0  0  0  0  0  0  0  0  0  0  0  0
  -23.4715  -39.7487   -8.3655 O   0  0  0  0  0  0  0  0  0  0  0  0
  -24.2265  -40.4662   -7.4146 C   0  0  0  0  0  0  0  0  0  0  0  0
  -23.4683  -40.7849   -6.1709 C   0  0  0  0  0  0  0  0  0  0  0  0
  -23.6770  -42.2415   -5.8231 C   0  0  0  0  0  0  0  0  0  0  0  0
  -23.3150  -43.1541   -6.9686 C   0  0  0  0  0  0  0  0  0  0  0  0
  -22.3225  -44.0854   -6.4938 N   0  0  0  0  0  0  0  0  0  0  0  0
  -16.9996  -40.7460   -9.8506 C   0  0  2  0  0  0  0  0  0  0  0  0
  -17.5813  -41.4973  -10.8982 O   0  0  0  0  0  0  0  0  0  0  0  0
  -15.6134  -41.2964   -9.6790 C   0  0  0  0  0  0  0  0  0  0  0  0
  -14.9928  -40.6054   -8.5681 N   0  0  0  0  0  0  0  0  0  0  0  0
  -13.9804  -39.6678   -8.9283 C   0  0  0  0  0  0  0  0  0  0  0  0
  -14.5602  -38.6136   -9.8343 C   0  0  0  0  0  0  0  0  0  0  0  0
  -15.1918  -38.7817  -11.0429 C   0  0  0  0  0  0  0  0  0  0  0  0
  -15.5375  -37.5576  -11.4861 N   0  0  0  0  0  0  0  0  0  0  0  0
  -15.1700  -36.6119  -10.6428 N   0  0  0  0  0  0  0  0  0  0  0  0
  -15.3741  -35.1761  -10.7874 C   0  0  0  0  0  0  0  0  0  0  0  0
  -16.8193  -34.8357  -10.4618 C   0  0  0  0  0  0  0  0  0  0  0  0
  -16.9031  -33.6526   -9.5321 C   0  0  0  0  0  0  0  0  0  0  0  0
  -17.5899  -34.4822  -11.7097 C   0  0  0  0  0  0  0  0  0  0  0  0
  -14.5617  -37.2509   -9.6113 C   0  0  0  0  0  0  0  0  0  0  0  0
  1  2  1  0
  2  3  1  0
  3  4  1  0
  4  5  2  0
  5  6  1  0
  6  7  2  0
  7  8  1  0
  8  9  2  0
  8 10  1  0
 10 11  2  0
 10 12  1  0
 12 13  1  0
 13 14  1  1
 14 15  1  0
 15 16  2  0
 16 17  1  0
 17 18  2  0
 18 19  1  0
 19 20  2  0
 17 21  1  0
 21 22  1  0
 22 23  1  0
 23 24  1  0
 24 25  1  0
 25 26  1  0
 13 27  1  0
 27 28  1  6
 27 29  1  0
 29 30  1  0
 30 31  1  0
 31 32  1  0
 32 33  1  0
 33 34  2  0
 34 35  1  0
 35 36  1  0
 36 37  1  0
 37 38  1  0
 37 39  1  0
 35 40  1  0
  9  4  1  0
 20 15  1  0
 26  6  1  0
 40 32  2  0
M  END
$$$$
