
     RDKit          3D

 40 43  0  0  0  0  0  0  0  0999 V2000
  -10.2073  -43.7892   -7.3697 C   0  0  0  0  0  0  0  0  0  0  0  0
  -10.6958  -42.5424   -7.7525 O   0  0  0  0  0  0  0  0  0  0  0  0
  -10.2622  -42.1661   -9.0036 C   0  0  0  0  0  0  0  0  0  0  0  0
  -11.2926  -41.3655   -9.6986 C   0  0  0  0  0  0  0  0  0  0  0  0
  -10.9746  -40.4539  -10.6676 C   0  0  0  0  0  0  0  0  0  0  0  0
  -11.9507  -39.6752  -11.3473 C   0  0  0  0  0  0  0  0  0  0  0  0
  -13.2880  -39.8167  -11.0493 C   0  0  0  0  0  0  0  0  0  0  0  0
  -13.6398  -40.7273  -10.0724 C   0  0  0  0  0  0  0  0  0  0  0  0
  -12.6224  -41.4805   -9.4228 C   0  0  0  0  0  0  0  0  0  0  0  0
  -14.9376  -41.0886   -9.4896 C   0  0  0  0  0  0  0  0  0  0  0  0
  -15.1621  -42.3541   -9.2277 O   0  0  0  0  0  0  0  0  0  0  0  0
  -16.0698  -40.3288   -9.1213 N   0  0  0  0  0  0  0  0  0  0  0  0
  -16.0073  -38.8857   -8.8008 C   0  0  1  0  0  0  0  0  0  0  0  0
  -16.8116  -38.0951   -9.7373 C   0  0  0  0  0  0  0  0  0  0  0  0
  -16.3282  -36.8430  -10.3712 C   0  0  0  0  0  0  0  0  0  0  0  0
  -15.0984  -36.4886  -10.8202 C   0  0  0  0  0  0  0  0  0  0  0  0
  -14.9634  -35.2397  -11.4393 C   0  0  0  0  0  0  0  0  0  0  0  0
  -16.0571  -34.3935  -11.5803 C   0  0  0  0  0  0  0  0  0  0  0  0
  -17.3205  -34.7177  -11.1347 C   0  0  0  0  0  0  0  0  0  0  0  0
  -17.4177  -35.9403  -10.5410 C   0  0  0  0  0  0  0  0  0  0  0  0
  -13.8121  -34.6726  -11.9791 O   0  0  0  0  0  0  0  0  0  0  0  0
  -12.9612  -35.0509  -13.0382 C   0  0  0  0  0  0  0  0  0  0  0  0
  -13.3357  -36.3499  -13.6671 C   0  0  0  0  0  0  0  0  0  0  0  0
  -12.0969  -37.2043  -13.8143 C   0  0  0  0  0  0  0  0  0  0  0  0
  -11.3757  -37.3860  -12.5017 C   0  0  0  0  0  0  0  0  0  0  0  0
  -11.2612  -38.8014  -12.2536 N   0  0  0  0  0  0  0  0  0  0  0  0
  -16.4191  -38.7670   -7.3397 C   0  0  2  0  0  0  0  0  0  0  0  0
  -15.3140  -39.1342   -6.5369 O   0  0  0  0  0  0  0  0  0  0  0  0
  -17.5316  -39.6951   -6.9459 C   0  0  0  0  0  0  0  0  0  0  0  0
  -18.5965  -39.5529   -7.9168 N   0  0  0  0  0  0  0  0  0  0  0  0
  -19.6649  -40.4882   -7.7839 C   0  0  0  0  0  0  0  0  0  0  0  0
  -20.8762  -39.8012   -7.2102 C   0  0  0  0  0  0  0  0  0  0  0  0
  -21.3435  -38.5362   -7.4735 C   0  0  0  0  0  0  0  0  0  0  0  0
  -22.4515  -38.3570   -6.7288 N   0  0  0  0  0  0  0  0  0  0  0  0
  -22.7287  -39.4232   -6.0030 N   0  0  0  0  0  0  0  0  0  0  0  0
  -23.8448  -39.5944   -5.0814 C   0  0  0  0  0  0  0  0  0  0  0  0
  -24.8950  -40.4887   -5.7201 C   0  0  0  0  0  0  0  0  0  0  0  0
  -24.4777  -41.9360   -5.6738 C   0  0  0  0  0  0  0  0  0  0  0  0
  -26.2156  -40.3783   -4.9991 C   0  0  0  0  0  0  0  0  0  0  0  0
  -21.7601  -40.3295   -6.2902 C   0  0  0  0  0  0  0  0  0  0  0  0
  1  2  1  0
  2  3  1  0
  3  4  1  0
  4  5  2  0
  5  6  1  0
  6  7  2  0
  7  8  1  0
  8  9  2  0
  8 10  1  0
 10 11  2  0
 10 12  1  0
 12 13  1  0
 13 14  1  6
 14 15  1  0
 15 16  2  0
 16 17  1  0
 17 18  2  0
 18 19  1  0
 19 20  2  0
 17 21  1  0
 21 22  1  0
 22 23  1  0
 23 24  1  0
 24 25  1  0
 25 26  1  0
 13 27  1  0
 27 28  1  1
 27 29  1  0
 29 30  1  0
 30 31  1  0
 31 32  1  0
 32 33  1  0
 33 34  2  0
 34 35  1  0
 35 36  1  0
 36 37  1  0
 37 38  1  0
 37 39  1  0
 35 40  1  0
  9  4  1  0
 20 15  1  0
 26  6  1  0
 40 32  2  0
M  END
$$$$
