
     RDKit          3D

 40 43  0  0  0  0  0  0  0  0999 V2000
  -21.4406  -38.7171  -14.9468 C   0  0  0  0  0  0  0  0  0  0  0  0
  -21.1641  -39.1545  -13.6538 O   0  0  0  0  0  0  0  0  0  0  0  0
  -21.3808  -40.5045  -13.4947 C   0  0  0  0  0  0  0  0  0  0  0  0
  -21.0687  -40.9282  -12.1131 C   0  0  0  0  0  0  0  0  0  0  0  0
  -22.0105  -41.4858  -11.2927 C   0  0  0  0  0  0  0  0  0  0  0  0
  -21.7297  -41.8997   -9.9619 C   0  0  0  0  0  0  0  0  0  0  0  0
  -20.4645  -41.7536   -9.4375 C   0  0  0  0  0  0  0  0  0  0  0  0
  -19.4928  -41.1903  -10.2411 C   0  0  0  0  0  0  0  0  0  0  0  0
  -19.8280  -40.7927  -11.5655 C   0  0  0  0  0  0  0  0  0  0  0  0
  -18.0859  -40.8549   -9.9908 C   0  0  0  0  0  0  0  0  0  0  0  0
  -17.2214  -41.0771  -10.9519 O   0  0  0  0  0  0  0  0  0  0  0  0
  -17.4127  -40.3084   -8.8759 N   0  0  0  0  0  0  0  0  0  0  0  0
  -18.0868  -39.4898   -7.8442 C   0  0  1  0  0  0  0  0  0  0  0  0
  -18.0181  -40.1283   -6.5265 C   0  0  0  0  0  0  0  0  0  0  0  0
  -19.1834  -40.2418   -5.6141 C   0  0  0  0  0  0  0  0  0  0  0  0
  -20.4975  -40.4591   -5.8696 C   0  0  0  0  0  0  0  0  0  0  0  0
  -21.3646  -40.5811   -4.7768 C   0  0  0  0  0  0  0  0  0  0  0  0
  -20.8880  -40.4759   -3.4752 C   0  0  0  0  0  0  0  0  0  0  0  0
  -19.5610  -40.2532   -3.1765 C   0  0  0  0  0  0  0  0  0  0  0  0
  -18.7446  -40.1431   -4.2619 C   0  0  0  0  0  0  0  0  0  0  0  0
  -22.7375  -40.8116   -4.7956 O   0  0  0  0  0  0  0  0  0  0  0  0
  -23.5249  -41.8823   -5.2671 C   0  0  0  0  0  0  0  0  0  0  0  0
  -22.7323  -42.9557   -5.9324 C   0  0  0  0  0  0  0  0  0  0  0  0
  -23.3962  -43.3235   -7.2401 C   0  0  0  0  0  0  0  0  0  0  0  0
  -23.5994  -42.1218   -8.1292 C   0  0  0  0  0  0  0  0  0  0  0  0
  -22.9509  -42.3900   -9.3883 N   0  0  0  0  0  0  0  0  0  0  0  0
  -17.4464  -38.1106   -7.9251 C   0  0  2  0  0  0  0  0  0  0  0  0
  -18.4669  -37.1402   -7.7937 O   0  0  0  0  0  0  0  0  0  0  0  0
  -16.7843  -37.8259   -9.2421 C   0  0  0  0  0  0  0  0  0  0  0  0
  -17.4598  -38.6045  -10.2592 N   0  0  0  0  0  0  0  0  0  0  0  0
  -16.6318  -39.0439  -11.3340 C   0  0  0  0  0  0  0  0  0  0  0  0
  -15.4482  -39.7999  -10.7902 C   0  0  0  0  0  0  0  0  0  0  0  0
  -15.1760  -41.1430  -10.8889 C   0  0  0  0  0  0  0  0  0  0  0  0
  -14.0101  -41.3618  -10.2507 N   0  0  0  0  0  0  0  0  0  0  0  0
  -13.5134  -40.2482   -9.7473 N   0  0  0  0  0  0  0  0  0  0  0  0
  -12.2740  -40.0986   -8.9950 C   0  0  0  0  0  0  0  0  0  0  0  0
  -12.4043  -40.8124   -7.6593 C   0  0  0  0  0  0  0  0  0  0  0  0
  -11.9579  -42.2479   -7.7641 C   0  0  0  0  0  0  0  0  0  0  0  0
  -11.5519  -40.1525   -6.6039 C   0  0  0  0  0  0  0  0  0  0  0  0
  -14.3943  -39.2685  -10.0735 C   0  0  0  0  0  0  0  0  0  0  0  0
  1  2  1  0
  2  3  1  0
  3  4  1  0
  4  5  2  0
  5  6  1  0
  6  7  2  0
  7  8  1  0
  8  9  2  0
  8 10  1  0
 10 11  2  0
 10 12  1  0
 12 13  1  0
 13 14  1  1
 14 15  1  0
 15 16  2  0
 16 17  1  0
 17 18  2  0
 18 19  1  0
 19 20  2  0
 17 21  1  0
 21 22  1  0
 22 23  1  0
 23 24  1  0
 24 25  1  0
 25 26  1  0
 13 27  1  0
 27 28  1  6
 27 29  1  0
 29 30  1  0
 30 31  1  0
 31 32  1  0
 32 33  1  0
 33 34  2  0
 34 35  1  0
 35 36  1  0
 36 37  1  0
 37 38  1  0
 37 39  1  0
 35 40  1  0
  9  4  1  0
 20 15  1  0
 26  6  1  0
 40 32  2  0
M  END
$$$$
