
     RDKit          3D

 40 43  0  0  0  0  0  0  0  0999 V2000
  -20.3863  -43.0167  -14.3346 C   0  0  0  0  0  0  0  0  0  0  0  0
  -19.9839  -41.7642  -13.8775 O   0  0  0  0  0  0  0  0  0  0  0  0
  -20.9379  -41.1560  -13.0934 C   0  0  0  0  0  0  0  0  0  0  0  0
  -20.7186  -41.4640  -11.6641 C   0  0  0  0  0  0  0  0  0  0  0  0
  -21.6794  -42.0567  -10.8919 C   0  0  0  0  0  0  0  0  0  0  0  0
  -21.4874  -42.3611   -9.5164 C   0  0  0  0  0  0  0  0  0  0  0  0
  -20.2938  -42.0652   -8.8959 C   0  0  0  0  0  0  0  0  0  0  0  0
  -19.3054  -41.4630   -9.6494 C   0  0  0  0  0  0  0  0  0  0  0  0
  -19.5505  -41.1797  -11.0220 C   0  0  0  0  0  0  0  0  0  0  0  0
  -17.9626  -40.9825   -9.3021 C   0  0  0  0  0  0  0  0  0  0  0  0
  -16.9969  -41.1804  -10.1673 O   0  0  0  0  0  0  0  0  0  0  0  0
  -17.4460  -40.3086   -8.1735 N   0  0  0  0  0  0  0  0  0  0  0  0
  -18.2819  -39.4959   -7.2626 C   0  0  1  0  0  0  0  0  0  0  0  0
  -18.2792  -40.0441   -5.9031 C   0  0  0  0  0  0  0  0  0  0  0  0
  -19.5093  -40.2109   -5.0892 C   0  0  0  0  0  0  0  0  0  0  0  0
  -20.7700  -40.5657   -5.4418 C   0  0  0  0  0  0  0  0  0  0  0  0
  -21.7202  -40.7020   -4.4222 C   0  0  0  0  0  0  0  0  0  0  0  0
  -21.3769  -40.4739   -3.0946 C   0  0  0  0  0  0  0  0  0  0  0  0
  -20.1079  -40.1099   -2.6984 C   0  0  0  0  0  0  0  0  0  0  0  0
  -19.2077  -39.9896   -3.7142 C   0  0  0  0  0  0  0  0  0  0  0  0
  -23.0598  -41.0611   -4.5437 O   0  0  0  0  0  0  0  0  0  0  0  0
  -23.7030  -42.2276   -5.0067 C   0  0  0  0  0  0  0  0  0  0  0  0
  -22.7608  -43.2602   -5.5256 C   0  0  0  0  0  0  0  0  0  0  0  0
  -23.2663  -43.7673   -6.8574 C   0  0  0  0  0  0  0  0  0  0  0  0
  -23.4914  -42.6461   -7.8412 C   0  0  0  0  0  0  0  0  0  0  0  0
  -22.7083  -42.9281   -9.0182 N   0  0  0  0  0  0  0  0  0  0  0  0
  -17.7607  -38.0702   -7.3826 C   0  0  2  0  0  0  0  0  0  0  0  0
  -18.8570  -37.2195   -7.6567 O   0  0  0  0  0  0  0  0  0  0  0  0
  -16.7991  -37.8697   -8.5179 C   0  0  0  0  0  0  0  0  0  0  0  0
  -15.9121  -39.0135   -8.5593 N   0  0  0  0  0  0  0  0  0  0  0  0
  -15.6543  -39.5323   -9.8624 C   0  0  0  0  0  0  0  0  0  0  0  0
  -14.6315  -38.6748  -10.5600 C   0  0  0  0  0  0  0  0  0  0  0  0
  -14.8399  -37.5605  -11.3364 C   0  0  0  0  0  0  0  0  0  0  0  0
  -13.6320  -37.1292  -11.7479 N   0  0  0  0  0  0  0  0  0  0  0  0
  -12.6591  -37.8922  -11.2878 N   0  0  0  0  0  0  0  0  0  0  0  0
  -11.2297  -37.7338  -11.5244 C   0  0  0  0  0  0  0  0  0  0  0  0
  -10.9658  -36.3623  -12.1243 C   0  0  0  0  0  0  0  0  0  0  0  0
  -11.1526  -35.2747  -11.0980 C   0  0  0  0  0  0  0  0  0  0  0  0
   -9.5517  -36.2562  -12.6394 C   0  0  0  0  0  0  0  0  0  0  0  0
  -13.2627  -38.8569  -10.5480 C   0  0  0  0  0  0  0  0  0  0  0  0
  1  2  1  0
  2  3  1  0
  3  4  1  0
  4  5  2  0
  5  6  1  0
  6  7  2  0
  7  8  1  0
  8  9  2  0
  8 10  1  0
 10 11  2  0
 10 12  1  0
 12 13  1  0
 13 14  1  1
 14 15  1  0
 15 16  2  0
 16 17  1  0
 17 18  2  0
 18 19  1  0
 19 20  2  0
 17 21  1  0
 21 22  1  0
 22 23  1  0
 23 24  1  0
 24 25  1  0
 25 26  1  0
 13 27  1  0
 27 28  1  6
 27 29  1  0
 29 30  1  0
 30 31  1  0
 31 32  1  0
 32 33  1  0
 33 34  2  0
 34 35  1  0
 35 36  1  0
 36 37  1  0
 37 38  1  0
 37 39  1  0
 35 40  1  0
  9  4  1  0
 20 15  1  0
 26  6  1  0
 40 32  2  0
M  END
$$$$
