
     RDKit          3D

 40 43  0  0  0  0  0  0  0  0999 V2000
  -15.9388  -47.3495   -9.7170 C   0  0  0  0  0  0  0  0  0  0  0  0
  -17.3254  -47.2213   -9.6964 O   0  0  0  0  0  0  0  0  0  0  0  0
  -17.7551  -46.0369  -10.2509 C   0  0  0  0  0  0  0  0  0  0  0  0
  -18.3425  -45.1556   -9.2193 C   0  0  0  0  0  0  0  0  0  0  0  0
  -19.5964  -45.3627   -8.7136 C   0  0  0  0  0  0  0  0  0  0  0  0
  -20.1781  -44.5270   -7.7215 C   0  0  0  0  0  0  0  0  0  0  0  0
  -19.4802  -43.4517   -7.2175 C   0  0  0  0  0  0  0  0  0  0  0  0
  -18.2124  -43.2151   -7.7114 C   0  0  0  0  0  0  0  0  0  0  0  0
  -17.6782  -44.0825   -8.7047 C   0  0  0  0  0  0  0  0  0  0  0  0
  -17.2337  -42.1566   -7.4352 C   0  0  0  0  0  0  0  0  0  0  0  0
  -15.9685  -42.4945   -7.3606 O   0  0  0  0  0  0  0  0  0  0  0  0
  -17.3578  -40.7660   -7.2215 N   0  0  0  0  0  0  0  0  0  0  0  0
  -18.5045  -39.9703   -7.7124 C   0  0  1  0  0  0  0  0  0  0  0  0
  -19.2511  -39.3687   -6.6036 C   0  0  0  0  0  0  0  0  0  0  0  0
  -20.7324  -39.3924   -6.5107 C   0  0  0  0  0  0  0  0  0  0  0  0
  -21.6320  -40.3457   -6.8593 C   0  0  0  0  0  0  0  0  0  0  0  0
  -22.9836  -40.0996   -6.5876 C   0  0  0  0  0  0  0  0  0  0  0  0
  -23.3836  -38.9123   -5.9854 C   0  0  0  0  0  0  0  0  0  0  0  0
  -22.4995  -37.9202   -5.6195 C   0  0  0  0  0  0  0  0  0  0  0  0
  -21.1931  -38.1930   -5.8945 C   0  0  0  0  0  0  0  0  0  0  0  0
  -24.0727  -40.9274   -6.8465 O   0  0  0  0  0  0  0  0  0  0  0  0
  -24.4344  -42.2104   -6.3863 C   0  0  0  0  0  0  0  0  0  0  0  0
  -23.4169  -42.8291   -5.4889 C   0  0  0  0  0  0  0  0  0  0  0  0
  -23.1669  -44.2532   -5.9312 C   0  0  0  0  0  0  0  0  0  0  0  0
  -22.7770  -44.3335   -7.3864 C   0  0  0  0  0  0  0  0  0  0  0  0
  -21.5059  -45.0088   -7.4658 N   0  0  0  0  0  0  0  0  0  0  0  0
  -17.9237  -38.9779   -8.7106 C   0  0  2  0  0  0  0  0  0  0  0  0
  -18.7718  -38.9400   -9.8419 O   0  0  0  0  0  0  0  0  0  0  0  0
  -16.5701  -39.3645   -9.2323 C   0  0  0  0  0  0  0  0  0  0  0  0
  -15.7904  -39.8685   -8.1210 N   0  0  0  0  0  0  0  0  0  0  0  0
  -14.6028  -40.5697   -8.4841 C   0  0  0  0  0  0  0  0  0  0  0  0
  -14.1366  -40.1151   -9.8420 C   0  0  0  0  0  0  0  0  0  0  0  0
  -14.3209  -40.7302  -11.0567 C   0  0  0  0  0  0  0  0  0  0  0  0
  -13.7286  -39.9587  -11.9886 N   0  0  0  0  0  0  0  0  0  0  0  0
  -13.1749  -38.8871  -11.4543 N   0  0  0  0  0  0  0  0  0  0  0  0
  -12.4493  -37.8318  -12.1501 C   0  0  0  0  0  0  0  0  0  0  0  0
  -10.9736  -38.1906  -12.2141 C   0  0  0  0  0  0  0  0  0  0  0  0
  -10.2343  -37.2844  -13.1645 C   0  0  0  0  0  0  0  0  0  0  0  0
  -10.3205  -38.0521  -10.8612 C   0  0  0  0  0  0  0  0  0  0  0  0
  -13.4192  -38.9688  -10.1217 C   0  0  0  0  0  0  0  0  0  0  0  0
  1  2  1  0
  2  3  1  0
  3  4  1  0
  4  5  2  0
  5  6  1  0
  6  7  2  0
  7  8  1  0
  8  9  2  0
  8 10  1  0
 10 11  2  0
 10 12  1  0
 12 13  1  0
 13 14  1  1
 14 15  1  0
 15 16  2  0
 16 17  1  0
 17 18  2  0
 18 19  1  0
 19 20  2  0
 17 21  1  0
 21 22  1  0
 22 23  1  0
 23 24  1  0
 24 25  1  0
 25 26  1  0
 13 27  1  0
 27 28  1  6
 27 29  1  0
 29 30  1  0
 30 31  1  0
 31 32  1  0
 32 33  1  0
 33 34  2  0
 34 35  1  0
 35 36  1  0
 36 37  1  0
 37 38  1  0
 37 39  1  0
 35 40  1  0
  9  4  1  0
 20 15  1  0
 26  6  1  0
 40 32  2  0
M  END
$$$$
