
     RDKit          3D

 40 43  0  0  0  0  0  0  0  0999 V2000
  -15.5176  -44.0666  -11.7537 C   0  0  0  0  0  0  0  0  0  0  0  0
  -16.1883  -43.6827  -12.9123 O   0  0  0  0  0  0  0  0  0  0  0  0
  -17.2195  -42.8064  -12.6605 C   0  0  0  0  0  0  0  0  0  0  0  0
  -17.5945  -42.8322  -11.2306 C   0  0  0  0  0  0  0  0  0  0  0  0
  -18.6952  -43.5071  -10.7792 C   0  0  0  0  0  0  0  0  0  0  0  0
  -19.0718  -43.5441   -9.4087 C   0  0  0  0  0  0  0  0  0  0  0  0
  -18.3199  -42.8868   -8.4601 C   0  0  0  0  0  0  0  0  0  0  0  0
  -17.2041  -42.1935   -8.8863 C   0  0  0  0  0  0  0  0  0  0  0  0
  -16.8729  -42.1887  -10.2700 C   0  0  0  0  0  0  0  0  0  0  0  0
  -16.2290  -41.3659   -8.1660 C   0  0  0  0  0  0  0  0  0  0  0  0
  -14.9672  -41.4634   -8.5110 O   0  0  0  0  0  0  0  0  0  0  0  0
  -16.3544  -40.4256   -7.1197 N   0  0  0  0  0  0  0  0  0  0  0  0
  -17.6109  -39.7004   -6.8288 C   0  0  1  0  0  0  0  0  0  0  0  0
  -18.1132  -40.0181   -5.4888 C   0  0  0  0  0  0  0  0  0  0  0  0
  -19.5344  -40.3404   -5.2065 C   0  0  0  0  0  0  0  0  0  0  0  0
  -20.4527  -41.0289   -5.9291 C   0  0  0  0  0  0  0  0  0  0  0  0
  -21.7178  -41.2252   -5.3616 C   0  0  0  0  0  0  0  0  0  0  0  0
  -22.0176  -40.7228   -4.1006 C   0  0  0  0  0  0  0  0  0  0  0  0
  -21.1120  -40.0169   -3.3381 C   0  0  0  0  0  0  0  0  0  0  0  0
  -19.8907  -39.8471   -3.9179 C   0  0  0  0  0  0  0  0  0  0  0  0
  -22.8053  -41.9008   -5.9085 O   0  0  0  0  0  0  0  0  0  0  0  0
  -23.0066  -43.2418   -6.2957 C   0  0  0  0  0  0  0  0  0  0  0  0
  -21.7920  -44.0934   -6.1445 C   0  0  0  0  0  0  0  0  0  0  0  0
  -21.5936  -44.9020   -7.4065 C   0  0  0  0  0  0  0  0  0  0  0  0
  -21.5356  -44.0283   -8.6351 C   0  0  0  0  0  0  0  0  0  0  0  0
  -20.2899  -44.2968   -9.3088 N   0  0  0  0  0  0  0  0  0  0  0  0
  -17.3053  -38.2282   -7.0692 C   0  0  2  0  0  0  0  0  0  0  0  0
  -18.0363  -37.8036   -8.2030 O   0  0  0  0  0  0  0  0  0  0  0  0
  -15.8647  -37.9524   -7.3897 C   0  0  0  0  0  0  0  0  0  0  0  0
  -15.5658  -38.5665   -8.6666 N   0  0  0  0  0  0  0  0  0  0  0  0
  -14.2135  -38.4340   -9.0998 C   0  0  0  0  0  0  0  0  0  0  0  0
  -14.1562  -37.5819  -10.3403 C   0  0  0  0  0  0  0  0  0  0  0  0
  -13.7513  -36.2743  -10.4585 C   0  0  0  0  0  0  0  0  0  0  0  0
  -13.8727  -35.9347  -11.7563 N   0  0  0  0  0  0  0  0  0  0  0  0
  -14.3293  -36.9373  -12.4820 N   0  0  0  0  0  0  0  0  0  0  0  0
  -14.5871  -36.9395  -13.9165 C   0  0  0  0  0  0  0  0  0  0  0  0
  -13.9284  -35.7250  -14.5502 C   0  0  0  0  0  0  0  0  0  0  0  0
  -12.4654  -35.9744  -14.8118 C   0  0  0  0  0  0  0  0  0  0  0  0
  -14.5700  -35.3856  -15.8727 C   0  0  0  0  0  0  0  0  0  0  0  0
  -14.5105  -37.9682  -11.6178 C   0  0  0  0  0  0  0  0  0  0  0  0
  1  2  1  0
  2  3  1  0
  3  4  1  0
  4  5  2  0
  5  6  1  0
  6  7  2  0
  7  8  1  0
  8  9  2  0
  8 10  1  0
 10 11  2  0
 10 12  1  0
 12 13  1  0
 13 14  1  1
 14 15  1  0
 15 16  2  0
 16 17  1  0
 17 18  2  0
 18 19  1  0
 19 20  2  0
 17 21  1  0
 21 22  1  0
 22 23  1  0
 23 24  1  0
 24 25  1  0
 25 26  1  0
 13 27  1  0
 27 28  1  6
 27 29  1  0
 29 30  1  0
 30 31  1  0
 31 32  1  0
 32 33  1  0
 33 34  2  0
 34 35  1  0
 35 36  1  0
 36 37  1  0
 37 38  1  0
 37 39  1  0
 35 40  1  0
  9  4  1  0
 20 15  1  0
 26  6  1  0
 40 32  2  0
M  END
$$$$
