
     RDKit          3D

 40 43  0  0  0  0  0  0  0  0999 V2000
  -12.1602  -45.6930  -11.7333 C   0  0  0  0  0  0  0  0  0  0  0  0
  -11.2994  -44.6449  -12.0497 O   0  0  0  0  0  0  0  0  0  0  0  0
  -11.2613  -43.6781  -11.0705 C   0  0  0  0  0  0  0  0  0  0  0  0
  -12.0948  -42.5161  -11.4458 C   0  0  0  0  0  0  0  0  0  0  0  0
  -11.6043  -41.4793  -12.1911 C   0  0  0  0  0  0  0  0  0  0  0  0
  -12.3898  -40.3539  -12.5623 C   0  0  0  0  0  0  0  0  0  0  0  0
  -13.7094  -40.2661  -12.1775 C   0  0  0  0  0  0  0  0  0  0  0  0
  -14.2322  -41.2965  -11.4211 C   0  0  0  0  0  0  0  0  0  0  0  0
  -13.4016  -42.3993  -11.0768 C   0  0  0  0  0  0  0  0  0  0  0  0
  -15.5555  -41.4979  -10.8187 C   0  0  0  0  0  0  0  0  0  0  0  0
  -16.0675  -42.7050  -10.8509 O   0  0  0  0  0  0  0  0  0  0  0  0
  -16.4567  -40.6269  -10.1676 N   0  0  0  0  0  0  0  0  0  0  0  0
  -16.0369  -39.3675   -9.5144 C   0  0  1  0  0  0  0  0  0  0  0  0
  -16.6627  -38.2028  -10.1473 C   0  0  0  0  0  0  0  0  0  0  0  0
  -15.9170  -36.9696  -10.5028 C   0  0  0  0  0  0  0  0  0  0  0  0
  -14.6562  -36.7942  -10.9710 C   0  0  0  0  0  0  0  0  0  0  0  0
  -14.2486  -35.4902  -11.2787 C   0  0  0  0  0  0  0  0  0  0  0  0
  -15.1114  -34.4147  -11.1020 C   0  0  0  0  0  0  0  0  0  0  0  0
  -16.3977  -34.5533  -10.6265 C   0  0  0  0  0  0  0  0  0  0  0  0
  -16.7631  -35.8345  -10.3406 C   0  0  0  0  0  0  0  0  0  0  0  0
  -13.0164  -35.0739  -11.7753 O   0  0  0  0  0  0  0  0  0  0  0  0
  -12.3226  -35.3448  -12.9728 C   0  0  0  0  0  0  0  0  0  0  0  0
  -13.0222  -36.3194  -13.8582 C   0  0  0  0  0  0  0  0  0  0  0  0
  -12.0318  -37.3602  -14.3293 C   0  0  0  0  0  0  0  0  0  0  0  0
  -11.3258  -38.0316  -13.1774 C   0  0  0  0  0  0  0  0  0  0  0  0
  -11.5455  -39.4516  -13.2927 N   0  0  0  0  0  0  0  0  0  0  0  0
  -16.3518  -39.5426   -8.0349 C   0  0  2  0  0  0  0  0  0  0  0  0
  -15.1381  -39.7807   -7.3489 O   0  0  0  0  0  0  0  0  0  0  0  0
  -17.2244  -40.7274   -7.7368 C   0  0  0  0  0  0  0  0  0  0  0  0
  -18.2399  -40.8045   -8.7662 N   0  0  0  0  0  0  0  0  0  0  0  0
  -19.2519  -41.7847   -8.5453 C   0  0  0  0  0  0  0  0  0  0  0  0
  -19.9999  -41.4691   -7.2768 C   0  0  0  0  0  0  0  0  0  0  0  0
  -19.8104  -41.9956   -6.0219 C   0  0  0  0  0  0  0  0  0  0  0  0
  -20.7116  -41.4159   -5.2057 N   0  0  0  0  0  0  0  0  0  0  0  0
  -21.4692  -40.5507   -5.8521 N   0  0  0  0  0  0  0  0  0  0  0  0
  -22.5460  -39.7388   -5.2992 C   0  0  0  0  0  0  0  0  0  0  0  0
  -23.2872  -40.5368   -4.2389 C   0  0  0  0  0  0  0  0  0  0  0  0
  -22.6661  -40.3432   -2.8795 C   0  0  0  0  0  0  0  0  0  0  0  0
  -24.7290  -40.1036   -4.1401 C   0  0  0  0  0  0  0  0  0  0  0  0
  -21.0402  -40.5715   -7.1396 C   0  0  0  0  0  0  0  0  0  0  0  0
  1  2  1  0
  2  3  1  0
  3  4  1  0
  4  5  2  0
  5  6  1  0
  6  7  2  0
  7  8  1  0
  8  9  2  0
  8 10  1  0
 10 11  2  0
 10 12  1  0
 12 13  1  0
 13 14  1  6
 14 15  1  0
 15 16  2  0
 16 17  1  0
 17 18  2  0
 18 19  1  0
 19 20  2  0
 17 21  1  0
 21 22  1  0
 22 23  1  0
 23 24  1  0
 24 25  1  0
 25 26  1  0
 13 27  1  0
 27 28  1  1
 27 29  1  0
 29 30  1  0
 30 31  1  0
 31 32  1  0
 32 33  1  0
 33 34  2  0
 34 35  1  0
 35 36  1  0
 36 37  1  0
 37 38  1  0
 37 39  1  0
 35 40  1  0
  9  4  1  0
 20 15  1  0
 26  6  1  0
 40 32  2  0
M  END
$$$$
