
     RDKit          3D

 40 43  0  0  0  0  0  0  0  0999 V2000
  -15.2576  -47.0361  -12.0032 C   0  0  0  0  0  0  0  0  0  0  0  0
  -15.6197  -46.2626  -10.9031 O   0  0  0  0  0  0  0  0  0  0  0  0
  -16.5456  -45.2944  -11.2194 C   0  0  0  0  0  0  0  0  0  0  0  0
  -17.1803  -44.7545   -9.9981 C   0  0  0  0  0  0  0  0  0  0  0  0
  -18.4438  -45.1123   -9.6157 C   0  0  0  0  0  0  0  0  0  0  0  0
  -19.0708  -44.6046   -8.4450 C   0  0  0  0  0  0  0  0  0  0  0  0
  -18.4096  -43.7127   -7.6299 C   0  0  0  0  0  0  0  0  0  0  0  0
  -17.1331  -43.3298   -7.9920 C   0  0  0  0  0  0  0  0  0  0  0  0
  -16.5530  -43.8681   -9.1744 C   0  0  0  0  0  0  0  0  0  0  0  0
  -16.1843  -42.3852   -7.3902 C   0  0  0  0  0  0  0  0  0  0  0  0
  -14.9152  -42.7162   -7.3737 O   0  0  0  0  0  0  0  0  0  0  0  0
  -16.3426  -41.1167   -6.7896 N   0  0  0  0  0  0  0  0  0  0  0  0
  -17.4905  -40.2259   -7.0689 C   0  0  1  0  0  0  0  0  0  0  0  0
  -18.2809  -39.9777   -5.8595 C   0  0  0  0  0  0  0  0  0  0  0  0
  -19.7634  -40.0436   -5.8270 C   0  0  0  0  0  0  0  0  0  0  0  0
  -20.6332  -40.8657   -6.4651 C   0  0  0  0  0  0  0  0  0  0  0  0
  -21.9967  -40.7233   -6.1796 C   0  0  0  0  0  0  0  0  0  0  0  0
  -22.4379  -39.7645   -5.2749 C   0  0  0  0  0  0  0  0  0  0  0  0
  -21.5849  -38.9104   -4.6095 C   0  0  0  0  0  0  0  0  0  0  0  0
  -20.2659  -39.0779   -4.9075 C   0  0  0  0  0  0  0  0  0  0  0  0
  -23.0610  -41.4532   -6.7021 O   0  0  0  0  0  0  0  0  0  0  0  0
  -23.4098  -42.8184   -6.6430 C   0  0  0  0  0  0  0  0  0  0  0  0
  -22.4064  -43.6583   -5.9281 C   0  0  0  0  0  0  0  0  0  0  0  0
  -22.1149  -44.8915   -6.7529 C   0  0  0  0  0  0  0  0  0  0  0  0
  -21.6816  -44.5446   -8.1557 C   0  0  0  0  0  0  0  0  0  0  0  0
  -20.3954  -45.1542   -8.3835 N   0  0  0  0  0  0  0  0  0  0  0  0
  -16.9013  -38.9815   -7.7192 C   0  0  2  0  0  0  0  0  0  0  0  0
  -17.9631  -38.2191   -8.2592 O   0  0  0  0  0  0  0  0  0  0  0  0
  -15.9865  -39.2755   -8.8727 C   0  0  0  0  0  0  0  0  0  0  0  0
  -15.1248  -40.3748   -8.4906 N   0  0  0  0  0  0  0  0  0  0  0  0
  -13.7556  -40.0291   -8.2918 C   0  0  0  0  0  0  0  0  0  0  0  0
  -13.3627  -38.9314   -9.2451 C   0  0  0  0  0  0  0  0  0  0  0  0
  -12.7792  -37.7211   -8.9579 C   0  0  0  0  0  0  0  0  0  0  0  0
  -12.6156  -37.0698  -10.1256 N   0  0  0  0  0  0  0  0  0  0  0  0
  -13.0554  -37.7807  -11.1461 N   0  0  0  0  0  0  0  0  0  0  0  0
  -13.0433  -37.4011  -12.5532 C   0  0  0  0  0  0  0  0  0  0  0  0
  -13.4808  -35.9517  -12.6894 C   0  0  0  0  0  0  0  0  0  0  0  0
  -13.1839  -35.4214  -14.0684 C   0  0  0  0  0  0  0  0  0  0  0  0
  -14.9652  -35.8073  -12.4622 C   0  0  0  0  0  0  0  0  0  0  0  0
  -13.5227  -38.9398  -10.6167 C   0  0  0  0  0  0  0  0  0  0  0  0
  1  2  1  0
  2  3  1  0
  3  4  1  0
  4  5  2  0
  5  6  1  0
  6  7  2  0
  7  8  1  0
  8  9  2  0
  8 10  1  0
 10 11  2  0
 10 12  1  0
 12 13  1  0
 13 14  1  1
 14 15  1  0
 15 16  2  0
 16 17  1  0
 17 18  2  0
 18 19  1  0
 19 20  2  0
 17 21  1  0
 21 22  1  0
 22 23  1  0
 23 24  1  0
 24 25  1  0
 25 26  1  0
 13 27  1  0
 27 28  1  6
 27 29  1  0
 29 30  1  0
 30 31  1  0
 31 32  1  0
 32 33  1  0
 33 34  2  0
 34 35  1  0
 35 36  1  0
 36 37  1  0
 37 38  1  0
 37 39  1  0
 35 40  1  0
  9  4  1  0
 20 15  1  0
 26  6  1  0
 40 32  2  0
M  END
$$$$
