
     RDKit          3D

 40 43  0  0  0  0  0  0  0  0999 V2000
  -12.9985  -44.2918   -6.5501 C   0  0  0  0  0  0  0  0  0  0  0  0
  -12.4800  -44.1442   -7.8342 O   0  0  0  0  0  0  0  0  0  0  0  0
  -13.3398  -44.6013   -8.8072 C   0  0  0  0  0  0  0  0  0  0  0  0
  -13.8027  -43.4895   -9.6648 C   0  0  0  0  0  0  0  0  0  0  0  0
  -13.1784  -43.1673  -10.8384 C   0  0  0  0  0  0  0  0  0  0  0  0
  -13.6087  -42.1026  -11.6766 C   0  0  0  0  0  0  0  0  0  0  0  0
  -14.7009  -41.3385  -11.3296 C   0  0  0  0  0  0  0  0  0  0  0  0
  -15.3501  -41.6379  -10.1480 C   0  0  0  0  0  0  0  0  0  0  0  0
  -14.8772  -42.7139   -9.3461 C   0  0  0  0  0  0  0  0  0  0  0  0
  -16.4923  -41.0127   -9.4705 C   0  0  0  0  0  0  0  0  0  0  0  0
  -17.3689  -41.7989   -8.8926 O   0  0  0  0  0  0  0  0  0  0  0  0
  -16.8814  -39.6673   -9.2874 N   0  0  0  0  0  0  0  0  0  0  0  0
  -15.9312  -38.5346   -9.3443 C   0  0  1  0  0  0  0  0  0  0  0  0
  -16.2615  -37.6146  -10.4367 C   0  0  0  0  0  0  0  0  0  0  0  0
  -15.2500  -37.0675  -11.3754 C   0  0  0  0  0  0  0  0  0  0  0  0
  -14.1433  -37.6310  -11.9206 C   0  0  0  0  0  0  0  0  0  0  0  0
  -13.4073  -36.8711  -12.8381 C   0  0  0  0  0  0  0  0  0  0  0  0
  -13.8006  -35.5799  -13.1703 C   0  0  0  0  0  0  0  0  0  0  0  0
  -14.9169  -34.9734  -12.6356 C   0  0  0  0  0  0  0  0  0  0  0  0
  -15.6117  -35.7410  -11.7498 C   0  0  0  0  0  0  0  0  0  0  0  0
  -12.2531  -37.2403  -13.5237 O   0  0  0  0  0  0  0  0  0  0  0  0
  -11.9788  -38.2524  -14.4667 C   0  0  0  0  0  0  0  0  0  0  0  0
  -13.1433  -39.1429  -14.7393 C   0  0  0  0  0  0  0  0  0  0  0  0
  -12.6882  -40.5838  -14.6863 C   0  0  0  0  0  0  0  0  0  0  0  0
  -12.0034  -40.9132  -13.3831 C   0  0  0  0  0  0  0  0  0  0  0  0
  -12.7017  -42.0242  -12.7864 N   0  0  0  0  0  0  0  0  0  0  0  0
  -15.9426  -37.9134   -7.9541 C   0  0  2  0  0  0  0  0  0  0  0  0
  -15.4648  -38.8763   -7.0349 O   0  0  0  0  0  0  0  0  0  0  0  0
  -17.3126  -37.5363   -7.4697 C   0  0  0  0  0  0  0  0  0  0  0  0
  -17.9347  -38.7231   -6.9207 N   0  0  0  0  0  0  0  0  0  0  0  0
  -19.1797  -38.5033   -6.2608 C   0  0  0  0  0  0  0  0  0  0  0  0
  -20.3088  -38.6142   -7.2511 C   0  0  0  0  0  0  0  0  0  0  0  0
  -20.9478  -37.6062   -7.9319 C   0  0  0  0  0  0  0  0  0  0  0  0
  -21.8911  -38.1810   -8.7029 N   0  0  0  0  0  0  0  0  0  0  0  0
  -21.9020  -39.4928   -8.5635 N   0  0  0  0  0  0  0  0  0  0  0  0
  -22.7813  -40.4417   -9.2347 C   0  0  0  0  0  0  0  0  0  0  0  0
  -23.4641  -39.7561  -10.4070 C   0  0  0  0  0  0  0  0  0  0  0  0
  -22.5562  -39.7010  -11.6086 C   0  0  0  0  0  0  0  0  0  0  0  0
  -24.7117  -40.4972  -10.8199 C   0  0  0  0  0  0  0  0  0  0  0  0
  -20.9252  -39.7784   -7.6654 C   0  0  0  0  0  0  0  0  0  0  0  0
  1  2  1  0
  2  3  1  0
  3  4  1  0
  4  5  2  0
  5  6  1  0
  6  7  2  0
  7  8  1  0
  8  9  2  0
  8 10  1  0
 10 11  2  0
 10 12  1  0
 12 13  1  0
 13 14  1  6
 14 15  1  0
 15 16  2  0
 16 17  1  0
 17 18  2  0
 18 19  1  0
 19 20  2  0
 17 21  1  0
 21 22  1  0
 22 23  1  0
 23 24  1  0
 24 25  1  0
 25 26  1  0
 13 27  1  0
 27 28  1  1
 27 29  1  0
 29 30  1  0
 30 31  1  0
 31 32  1  0
 32 33  1  0
 33 34  2  0
 34 35  1  0
 35 36  1  0
 36 37  1  0
 37 38  1  0
 37 39  1  0
 35 40  1  0
  9  4  1  0
 20 15  1  0
 26  6  1  0
 40 32  2  0
M  END
$$$$
