
     RDKit          3D

 40 43  0  0  0  0  0  0  0  0999 V2000
  -17.0374  -48.4523   -8.8293 C   0  0  0  0  0  0  0  0  0  0  0  0
  -16.9978  -47.1305   -9.2663 O   0  0  0  0  0  0  0  0  0  0  0  0
  -18.2352  -46.6618   -9.6457 C   0  0  0  0  0  0  0  0  0  0  0  0
  -18.6931  -45.5897   -8.7365 C   0  0  0  0  0  0  0  0  0  0  0  0
  -19.9896  -45.5023   -8.3093 C   0  0  0  0  0  0  0  0  0  0  0  0
  -20.4488  -44.4795   -7.4351 C   0  0  0  0  0  0  0  0  0  0  0  0
  -19.5809  -43.5156   -6.9715 C   0  0  0  0  0  0  0  0  0  0  0  0
  -18.2657  -43.5757   -7.3884 C   0  0  0  0  0  0  0  0  0  0  0  0
  -17.8592  -44.6204   -8.2646 C   0  0  0  0  0  0  0  0  0  0  0  0
  -17.1135  -42.7040   -7.1290 C   0  0  0  0  0  0  0  0  0  0  0  0
  -15.9467  -43.2703   -6.9336 O   0  0  0  0  0  0  0  0  0  0  0  0
  -16.9712  -41.3015   -7.0405 N   0  0  0  0  0  0  0  0  0  0  0  0
  -17.9079  -40.3505   -7.6786 C   0  0  1  0  0  0  0  0  0  0  0  0
  -18.5814  -39.5135   -6.6814 C   0  0  0  0  0  0  0  0  0  0  0  0
  -20.0408  -39.2427   -6.6964 C   0  0  0  0  0  0  0  0  0  0  0  0
  -21.0906  -40.0338   -7.0305 C   0  0  0  0  0  0  0  0  0  0  0  0
  -22.3796  -39.5074   -6.8805 C   0  0  0  0  0  0  0  0  0  0  0  0
  -22.5694  -38.2134   -6.4095 C   0  0  0  0  0  0  0  0  0  0  0  0
  -21.5280  -37.3797   -6.0625 C   0  0  0  0  0  0  0  0  0  0  0  0
  -20.2884  -37.9238   -6.2169 C   0  0  0  0  0  0  0  0  0  0  0  0
  -23.5950  -40.1309   -7.1499 O   0  0  0  0  0  0  0  0  0  0  0  0
  -24.2292  -41.2705   -6.6133 C   0  0  0  0  0  0  0  0  0  0  0  0
  -23.4067  -41.9850   -5.5954 C   0  0  0  0  0  0  0  0  0  0  0  0
  -23.4196  -43.4661   -5.8990 C   0  0  0  0  0  0  0  0  0  0  0  0
  -22.9723  -43.7584   -7.3098 C   0  0  0  0  0  0  0  0  0  0  0  0
  -21.8580  -44.6701   -7.2392 N   0  0  0  0  0  0  0  0  0  0  0  0
  -17.0867  -39.5883   -8.7098 C   0  0  2  0  0  0  0  0  0  0  0  0
  -17.5249  -39.9741   -9.9980 O   0  0  0  0  0  0  0  0  0  0  0  0
  -15.6195  -39.9038   -8.6699 C   0  0  0  0  0  0  0  0  0  0  0  0
  -15.2877  -40.6382   -9.8731 N   0  0  0  0  0  0  0  0  0  0  0  0
  -13.8935  -40.7374  -10.1562 C   0  0  0  0  0  0  0  0  0  0  0  0
  -13.5456  -39.8521  -11.3238 C   0  0  0  0  0  0  0  0  0  0  0  0
  -13.6776  -40.1191  -12.6652 C   0  0  0  0  0  0  0  0  0  0  0  0
  -13.2376  -39.0352  -13.3330 N   0  0  0  0  0  0  0  0  0  0  0  0
  -12.8308  -38.0875  -12.5103 N   0  0  0  0  0  0  0  0  0  0  0  0
  -12.2931  -36.7814  -12.8696 C   0  0  0  0  0  0  0  0  0  0  0  0
  -10.8230  -36.9218  -13.2300 C   0  0  0  0  0  0  0  0  0  0  0  0
  -10.4924  -36.1444  -14.4779 C   0  0  0  0  0  0  0  0  0  0  0  0
   -9.9391  -36.3967  -12.1259 C   0  0  0  0  0  0  0  0  0  0  0  0
  -13.0153  -38.5788  -11.2585 C   0  0  0  0  0  0  0  0  0  0  0  0
  1  2  1  0
  2  3  1  0
  3  4  1  0
  4  5  2  0
  5  6  1  0
  6  7  2  0
  7  8  1  0
  8  9  2  0
  8 10  1  0
 10 11  2  0
 10 12  1  0
 12 13  1  0
 13 14  1  1
 14 15  1  0
 15 16  2  0
 16 17  1  0
 17 18  2  0
 18 19  1  0
 19 20  2  0
 17 21  1  0
 21 22  1  0
 22 23  1  0
 23 24  1  0
 24 25  1  0
 25 26  1  0
 13 27  1  0
 27 28  1  6
 27 29  1  0
 29 30  1  0
 30 31  1  0
 31 32  1  0
 32 33  1  0
 33 34  2  0
 34 35  1  0
 35 36  1  0
 36 37  1  0
 37 38  1  0
 37 39  1  0
 35 40  1  0
  9  4  1  0
 20 15  1  0
 26  6  1  0
 40 32  2  0
M  END
$$$$
