
     RDKit          3D

 40 43  0  0  0  0  0  0  0  0999 V2000
  -19.4199  -47.6859   -6.8162 C   0  0  0  0  0  0  0  0  0  0  0  0
  -19.2907  -47.0888   -8.0677 O   0  0  0  0  0  0  0  0  0  0  0  0
  -18.1720  -46.2920   -8.1603 C   0  0  0  0  0  0  0  0  0  0  0  0
  -18.5366  -44.9187   -8.5689 C   0  0  0  0  0  0  0  0  0  0  0  0
  -18.8549  -44.6045   -9.8616 C   0  0  0  0  0  0  0  0  0  0  0  0
  -19.2083  -43.2905  -10.2737 C   0  0  0  0  0  0  0  0  0  0  0  0
  -19.2475  -42.2594   -9.3613 C   0  0  0  0  0  0  0  0  0  0  0  0
  -18.9276  -42.5454   -8.0486 C   0  0  0  0  0  0  0  0  0  0  0  0
  -18.5802  -43.8778   -7.6902 C   0  0  0  0  0  0  0  0  0  0  0  0
  -18.8271  -41.6957   -6.8559 C   0  0  0  0  0  0  0  0  0  0  0  0
  -19.2713  -42.1775   -5.7197 O   0  0  0  0  0  0  0  0  0  0  0  0
  -18.3237  -40.3932   -6.6445 N   0  0  0  0  0  0  0  0  0  0  0  0
  -17.3223  -39.7584   -7.5296 C   0  0  1  0  0  0  0  0  0  0  0  0
  -17.8598  -38.5520   -8.1656 C   0  0  0  0  0  0  0  0  0  0  0  0
  -17.6958  -38.2500   -9.6097 C   0  0  0  0  0  0  0  0  0  0  0  0
  -17.6972  -39.0622  -10.6958 C   0  0  0  0  0  0  0  0  0  0  0  0
  -17.5802  -38.4665  -11.9578 C   0  0  0  0  0  0  0  0  0  0  0  0
  -17.4609  -37.0875  -12.0853 C   0  0  0  0  0  0  0  0  0  0  0  0
  -17.4532  -36.2308  -11.0056 C   0  0  0  0  0  0  0  0  0  0  0  0
  -17.5723  -36.8423   -9.7938 C   0  0  0  0  0  0  0  0  0  0  0  0
  -17.5660  -39.0926  -13.2013 O   0  0  0  0  0  0  0  0  0  0  0  0
  -18.5143  -39.8734  -13.8940 C   0  0  0  0  0  0  0  0  0  0  0  0
  -19.7584  -40.1295  -13.1131 C   0  0  0  0  0  0  0  0  0  0  0  0
  -20.1029  -41.5993  -13.1981 C   0  0  0  0  0  0  0  0  0  0  0  0
  -18.9561  -42.4755  -12.7588 C   0  0  0  0  0  0  0  0  0  0  0  0
  -19.4303  -43.3205  -11.6916 N   0  0  0  0  0  0  0  0  0  0  0  0
  -16.0879  -39.5352   -6.6664 C   0  0  2  0  0  0  0  0  0  0  0  0
  -15.7880  -40.7466   -6.0009 O   0  0  0  0  0  0  0  0  0  0  0  0
  -16.2825  -38.5152   -5.5821 C   0  0  0  0  0  0  0  0  0  0  0  0
  -17.3967  -37.6703   -5.9586 N   0  0  0  0  0  0  0  0  0  0  0  0
  -18.4151  -37.5358   -4.9694 C   0  0  0  0  0  0  0  0  0  0  0  0
  -19.6315  -38.3239   -5.3788 C   0  0  0  0  0  0  0  0  0  0  0  0
  -20.2051  -39.3983   -4.7429 C   0  0  0  0  0  0  0  0  0  0  0  0
  -21.2708  -39.7738   -5.4762 N   0  0  0  0  0  0  0  0  0  0  0  0
  -21.4215  -39.0121   -6.5427 N   0  0  0  0  0  0  0  0  0  0  0  0
  -22.4582  -39.1196   -7.5615 C   0  0  0  0  0  0  0  0  0  0  0  0
  -22.0127  -40.1002   -8.6342 C   0  0  0  0  0  0  0  0  0  0  0  0
  -21.9886  -41.5110   -8.1051 C   0  0  0  0  0  0  0  0  0  0  0  0
  -22.9515  -40.0790   -9.8150 C   0  0  0  0  0  0  0  0  0  0  0  0
  -20.4116  -38.1064   -6.4973 C   0  0  0  0  0  0  0  0  0  0  0  0
  1  2  1  0
  2  3  1  0
  3  4  1  0
  4  5  2  0
  5  6  1  0
  6  7  2  0
  7  8  1  0
  8  9  2  0
  8 10  1  0
 10 11  2  0
 10 12  1  0
 12 13  1  0
 13 14  1  1
 14 15  1  0
 15 16  2  0
 16 17  1  0
 17 18  2  0
 18 19  1  0
 19 20  2  0
 17 21  1  0
 21 22  1  0
 22 23  1  0
 23 24  1  0
 24 25  1  0
 25 26  1  0
 13 27  1  0
 27 28  1  1
 27 29  1  0
 29 30  1  0
 30 31  1  0
 31 32  1  0
 32 33  1  0
 33 34  2  0
 34 35  1  0
 35 36  1  0
 36 37  1  0
 37 38  1  0
 37 39  1  0
 35 40  1  0
  9  4  1  0
 20 15  1  0
 26  6  1  0
 40 32  2  0
M  END
$$$$
