
     RDKit          3D

 40 43  0  0  0  0  0  0  0  0999 V2000
  -14.2244  -45.3196  -12.4530 C   0  0  0  0  0  0  0  0  0  0  0  0
  -13.7329  -44.5308  -11.4158 O   0  0  0  0  0  0  0  0  0  0  0  0
  -13.1284  -43.3797  -11.8679 C   0  0  0  0  0  0  0  0  0  0  0  0
  -14.0614  -42.2347  -11.8021 C   0  0  0  0  0  0  0  0  0  0  0  0
  -13.9215  -41.1351  -12.6034 C   0  0  0  0  0  0  0  0  0  0  0  0
  -14.8083  -40.0249  -12.5553 C   0  0  0  0  0  0  0  0  0  0  0  0
  -15.8709  -40.0175  -11.6789 C   0  0  0  0  0  0  0  0  0  0  0  0
  -16.0361  -41.1129  -10.8542 C   0  0  0  0  0  0  0  0  0  0  0  0
  -15.1189  -42.1970  -10.9431 C   0  0  0  0  0  0  0  0  0  0  0  0
  -17.0115  -41.4071   -9.7975 C   0  0  0  0  0  0  0  0  0  0  0  0
  -17.4747  -42.6313   -9.7130 O   0  0  0  0  0  0  0  0  0  0  0  0
  -17.5977  -40.6163   -8.7846 N   0  0  0  0  0  0  0  0  0  0  0  0
  -16.9753  -39.3810   -8.2596 C   0  0  1  0  0  0  0  0  0  0  0  0
  -17.8192  -38.2090   -8.5113 C   0  0  0  0  0  0  0  0  0  0  0  0
  -17.2944  -36.9256   -9.0410 C   0  0  0  0  0  0  0  0  0  0  0  0
  -16.3232  -36.6680   -9.9521 C   0  0  0  0  0  0  0  0  0  0  0  0
  -16.0915  -35.3315  -10.3004 C   0  0  0  0  0  0  0  0  0  0  0  0
  -16.8325  -34.3070   -9.7230 C   0  0  0  0  0  0  0  0  0  0  0  0
  -17.8249  -34.5294   -8.7927 C   0  0  0  0  0  0  0  0  0  0  0  0
  -18.0269  -35.8400   -8.4792 C   0  0  0  0  0  0  0  0  0  0  0  0
  -15.1616  -34.8332  -11.2090 O   0  0  0  0  0  0  0  0  0  0  0  0
  -14.9913  -35.0020  -12.5987 C   0  0  0  0  0  0  0  0  0  0  0  0
  -15.9669  -35.9518  -13.2065 C   0  0  0  0  0  0  0  0  0  0  0  0
  -15.2251  -36.9187  -14.1014 C   0  0  0  0  0  0  0  0  0  0  0  0
  -14.1113  -37.6260  -13.3698 C   0  0  0  0  0  0  0  0  0  0  0  0
  -14.3352  -39.0448  -13.4913 N   0  0  0  0  0  0  0  0  0  0  0  0
  -16.6790  -39.6572   -6.7918 C   0  0  2  0  0  0  0  0  0  0  0  0
  -15.3731  -39.1935   -6.5087 O   0  0  0  0  0  0  0  0  0  0  0  0
  -16.6758  -41.1163   -6.4380 C   0  0  0  0  0  0  0  0  0  0  0  0
  -17.8434  -41.3808   -5.6233 N   0  0  0  0  0  0  0  0  0  0  0  0
  -18.4382  -42.6625   -5.8167 C   0  0  0  0  0  0  0  0  0  0  0  0
  -19.8003  -42.5043   -6.4394 C   0  0  0  0  0  0  0  0  0  0  0  0
  -20.1958  -42.8208   -7.7165 C   0  0  0  0  0  0  0  0  0  0  0  0
  -21.5010  -42.5044   -7.8201 N   0  0  0  0  0  0  0  0  0  0  0  0
  -21.9724  -42.0048   -6.6938 N   0  0  0  0  0  0  0  0  0  0  0  0
  -23.3332  -41.5524   -6.4333 C   0  0  0  0  0  0  0  0  0  0  0  0
  -23.6743  -40.4084   -7.3743 C   0  0  0  0  0  0  0  0  0  0  0  0
  -24.5954  -40.8663   -8.4755 C   0  0  0  0  0  0  0  0  0  0  0  0
  -24.3718  -39.2896   -6.6409 C   0  0  0  0  0  0  0  0  0  0  0  0
  -20.9290  -41.9979   -5.8258 C   0  0  0  0  0  0  0  0  0  0  0  0
  1  2  1  0
  2  3  1  0
  3  4  1  0
  4  5  2  0
  5  6  1  0
  6  7  2  0
  7  8  1  0
  8  9  2  0
  8 10  1  0
 10 11  2  0
 10 12  1  0
 12 13  1  0
 13 14  1  1
 14 15  1  0
 15 16  2  0
 16 17  1  0
 17 18  2  0
 18 19  1  0
 19 20  2  0
 17 21  1  0
 21 22  1  0
 22 23  1  0
 23 24  1  0
 24 25  1  0
 25 26  1  0
 13 27  1  0
 27 28  1  6
 27 29  1  0
 29 30  1  0
 30 31  1  0
 31 32  1  0
 32 33  1  0
 33 34  2  0
 34 35  1  0
 35 36  1  0
 36 37  1  0
 37 38  1  0
 37 39  1  0
 35 40  1  0
  9  4  1  0
 20 15  1  0
 26  6  1  0
 40 32  2  0
M  END
$$$$
