
     RDKit          3D

 40 43  0  0  0  0  0  0  0  0999 V2000
  -17.4447  -43.6217  -13.3527 C   0  0  0  0  0  0  0  0  0  0  0  0
  -16.6620  -43.8801  -12.2301 O   0  0  0  0  0  0  0  0  0  0  0  0
  -17.1315  -44.9425  -11.4914 C   0  0  0  0  0  0  0  0  0  0  0  0
  -17.6547  -44.4855  -10.1863 C   0  0  0  0  0  0  0  0  0  0  0  0
  -18.7792  -45.0243   -9.6241 C   0  0  0  0  0  0  0  0  0  0  0  0
  -19.2974  -44.5987   -8.3704 C   0  0  0  0  0  0  0  0  0  0  0  0
  -18.6670  -43.6042   -7.6558 C   0  0  0  0  0  0  0  0  0  0  0  0
  -17.5307  -43.0383   -8.1996 C   0  0  0  0  0  0  0  0  0  0  0  0
  -17.0554  -43.5014   -9.4582 C   0  0  0  0  0  0  0  0  0  0  0  0
  -16.6587  -41.9515   -7.7381 C   0  0  0  0  0  0  0  0  0  0  0  0
  -15.3655  -42.0864   -7.9110 O   0  0  0  0  0  0  0  0  0  0  0  0
  -16.9181  -40.7122   -7.1122 N   0  0  0  0  0  0  0  0  0  0  0  0
  -18.2165  -40.0100   -7.2132 C   0  0  1  0  0  0  0  0  0  0  0  0
  -18.8492  -39.8651   -5.8989 C   0  0  0  0  0  0  0  0  0  0  0  0
  -20.2835  -40.1540   -5.6486 C   0  0  0  0  0  0  0  0  0  0  0  0
  -21.1023  -41.1083   -6.1569 C   0  0  0  0  0  0  0  0  0  0  0  0
  -22.4148  -41.1694   -5.6725 C   0  0  0  0  0  0  0  0  0  0  0  0
  -22.8590  -40.2742   -4.7063 C   0  0  0  0  0  0  0  0  0  0  0  0
  -22.0575  -39.2903   -4.1682 C   0  0  0  0  0  0  0  0  0  0  0  0
  -20.7865  -39.2610   -4.6586 C   0  0  0  0  0  0  0  0  0  0  0  0
  -23.4207  -42.0602   -6.0372 O   0  0  0  0  0  0  0  0  0  0  0  0
  -23.5455  -43.4613   -5.9364 C   0  0  0  0  0  0  0  0  0  0  0  0
  -22.3321  -44.1282   -5.3829 C   0  0  0  0  0  0  0  0  0  0  0  0
  -21.9808  -45.3161   -6.2499 C   0  0  0  0  0  0  0  0  0  0  0  0
  -21.8159  -44.9299   -7.6989 C   0  0  0  0  0  0  0  0  0  0  0  0
  -20.4995  -45.3415   -8.1179 N   0  0  0  0  0  0  0  0  0  0  0  0
  -17.9252  -38.7013   -7.9350 C   0  0  2  0  0  0  0  0  0  0  0  0
  -19.1481  -38.1803   -8.4182 O   0  0  0  0  0  0  0  0  0  0  0  0
  -17.0465  -38.8572   -9.1423 C   0  0  0  0  0  0  0  0  0  0  0  0
  -15.6869  -38.5529   -8.7475 N   0  0  0  0  0  0  0  0  0  0  0  0
  -14.6801  -39.3197   -9.4050 C   0  0  0  0  0  0  0  0  0  0  0  0
  -13.9208  -38.4459  -10.3683 C   0  0  0  0  0  0  0  0  0  0  0  0
  -14.2063  -38.1811  -11.6860 C   0  0  0  0  0  0  0  0  0  0  0  0
  -13.2497  -37.3498  -12.1424 N   0  0  0  0  0  0  0  0  0  0  0  0
  -12.3667  -37.0616  -11.2055 N   0  0  0  0  0  0  0  0  0  0  0  0
  -11.1987  -36.1990  -11.3325 C   0  0  0  0  0  0  0  0  0  0  0  0
  -11.1775  -35.5781  -12.7198 C   0  0  0  0  0  0  0  0  0  0  0  0
  -11.8121  -34.2113  -12.7136 C   0  0  0  0  0  0  0  0  0  0  0  0
   -9.7642  -35.4153  -13.2219 C   0  0  0  0  0  0  0  0  0  0  0  0
  -12.7689  -37.7342  -10.0973 C   0  0  0  0  0  0  0  0  0  0  0  0
  1  2  1  0
  2  3  1  0
  3  4  1  0
  4  5  2  0
  5  6  1  0
  6  7  2  0
  7  8  1  0
  8  9  2  0
  8 10  1  0
 10 11  2  0
 10 12  1  0
 12 13  1  0
 13 14  1  1
 14 15  1  0
 15 16  2  0
 16 17  1  0
 17 18  2  0
 18 19  1  0
 19 20  2  0
 17 21  1  0
 21 22  1  0
 22 23  1  0
 23 24  1  0
 24 25  1  0
 25 26  1  0
 13 27  1  0
 27 28  1  6
 27 29  1  0
 29 30  1  0
 30 31  1  0
 31 32  1  0
 32 33  1  0
 33 34  2  0
 34 35  1  0
 35 36  1  0
 36 37  1  0
 37 38  1  0
 37 39  1  0
 35 40  1  0
  9  4  1  0
 20 15  1  0
 26  6  1  0
 40 32  2  0
M  END
$$$$
