
     RDKit          3D

 40 43  0  0  0  0  0  0  0  0999 V2000
  -17.5434  -47.0996   -9.6688 C   0  0  0  0  0  0  0  0  0  0  0  0
  -16.2197  -46.7316   -9.4411 O   0  0  0  0  0  0  0  0  0  0  0  0
  -16.1118  -45.5907   -8.6785 C   0  0  0  0  0  0  0  0  0  0  0  0
  -15.9124  -44.4022   -9.5349 C   0  0  0  0  0  0  0  0  0  0  0  0
  -14.9698  -44.3692  -10.5256 C   0  0  0  0  0  0  0  0  0  0  0  0
  -14.7634  -43.2364  -11.3595 C   0  0  0  0  0  0  0  0  0  0  0  0
  -15.5278  -42.1020  -11.1980 C   0  0  0  0  0  0  0  0  0  0  0  0
  -16.4857  -42.1042  -10.2032 C   0  0  0  0  0  0  0  0  0  0  0  0
  -16.6502  -43.2646   -9.3965 C   0  0  0  0  0  0  0  0  0  0  0  0
  -17.4210  -41.0723   -9.7396 C   0  0  0  0  0  0  0  0  0  0  0  0
  -18.6359  -41.4457   -9.4153 O   0  0  0  0  0  0  0  0  0  0  0  0
  -17.2959  -39.6783   -9.5496 N   0  0  0  0  0  0  0  0  0  0  0  0
  -15.9977  -39.0047   -9.3264 C   0  0  1  0  0  0  0  0  0  0  0  0
  -15.7007  -38.0487  -10.3972 C   0  0  0  0  0  0  0  0  0  0  0  0
  -14.3767  -37.9545  -11.0616 C   0  0  0  0  0  0  0  0  0  0  0  0
  -13.4788  -38.9133  -11.3994 C   0  0  0  0  0  0  0  0  0  0  0  0
  -12.3251  -38.5157  -12.0864 C   0  0  0  0  0  0  0  0  0  0  0  0
  -12.1108  -37.1793  -12.4034 C   0  0  0  0  0  0  0  0  0  0  0  0
  -12.9984  -36.1773  -12.0749 C   0  0  0  0  0  0  0  0  0  0  0  0
  -14.1111  -36.5986  -11.4107 C   0  0  0  0  0  0  0  0  0  0  0  0
  -11.2794  -39.3165  -12.5376 O   0  0  0  0  0  0  0  0  0  0  0  0
  -11.2121  -40.3727  -13.4696 C   0  0  0  0  0  0  0  0  0  0  0  0
  -12.5372  -40.7459  -14.0425 C   0  0  0  0  0  0  0  0  0  0  0  0
  -12.6917  -42.2493  -13.9951 C   0  0  0  0  0  0  0  0  0  0  0  0
  -12.4912  -42.7950  -12.6029 C   0  0  0  0  0  0  0  0  0  0  0  0
  -13.6745  -43.5365  -12.2453 N   0  0  0  0  0  0  0  0  0  0  0  0
  -16.0775  -38.4026   -7.9300 C   0  0  2  0  0  0  0  0  0  0  0  0
  -15.0886  -39.0161   -7.1261 O   0  0  0  0  0  0  0  0  0  0  0  0
  -17.3822  -38.6588   -7.2329 C   0  0  0  0  0  0  0  0  0  0  0  0
  -18.4120  -38.7815   -8.2435 N   0  0  0  0  0  0  0  0  0  0  0  0
  -19.6510  -38.1515   -7.9241 C   0  0  0  0  0  0  0  0  0  0  0  0
  -20.4606  -39.0455   -7.0222 C   0  0  0  0  0  0  0  0  0  0  0  0
  -20.6548  -38.9380   -5.6663 C   0  0  0  0  0  0  0  0  0  0  0  0
  -21.4479  -39.9612   -5.2944 N   0  0  0  0  0  0  0  0  0  0  0  0
  -21.7773  -40.7210   -6.3213 N   0  0  0  0  0  0  0  0  0  0  0  0
  -22.6175  -41.9118   -6.3013 C   0  0  0  0  0  0  0  0  0  0  0  0
  -23.6911  -41.7549   -5.2367 C   0  0  0  0  0  0  0  0  0  0  0  0
  -24.7513  -42.8172   -5.3730 C   0  0  0  0  0  0  0  0  0  0  0  0
  -23.1065  -41.8784   -3.8514 C   0  0  0  0  0  0  0  0  0  0  0  0
  -21.1724  -40.1661   -7.4023 C   0  0  0  0  0  0  0  0  0  0  0  0
  1  2  1  0
  2  3  1  0
  3  4  1  0
  4  5  2  0
  5  6  1  0
  6  7  2  0
  7  8  1  0
  8  9  2  0
  8 10  1  0
 10 11  2  0
 10 12  1  0
 12 13  1  0
 13 14  1  6
 14 15  1  0
 15 16  2  0
 16 17  1  0
 17 18  2  0
 18 19  1  0
 19 20  2  0
 17 21  1  0
 21 22  1  0
 22 23  1  0
 23 24  1  0
 24 25  1  0
 25 26  1  0
 13 27  1  0
 27 28  1  1
 27 29  1  0
 29 30  1  0
 30 31  1  0
 31 32  1  0
 32 33  1  0
 33 34  2  0
 34 35  1  0
 35 36  1  0
 36 37  1  0
 37 38  1  0
 37 39  1  0
 35 40  1  0
  9  4  1  0
 20 15  1  0
 26  6  1  0
 40 32  2  0
M  END
$$$$
