
     RDKit          3D

 40 43  0  0  0  0  0  0  0  0999 V2000
  -15.8848  -46.1957  -11.3391 C   0  0  0  0  0  0  0  0  0  0  0  0
  -16.8755  -45.3328  -10.8771 O   0  0  0  0  0  0  0  0  0  0  0  0
  -17.6921  -45.9200   -9.9374 C   0  0  0  0  0  0  0  0  0  0  0  0
  -18.1326  -44.9305   -8.9311 C   0  0  0  0  0  0  0  0  0  0  0  0
  -19.2864  -45.0869   -8.2134 C   0  0  0  0  0  0  0  0  0  0  0  0
  -19.7264  -44.1470   -7.2416 C   0  0  0  0  0  0  0  0  0  0  0  0
  -18.9852  -43.0163   -6.9781 C   0  0  0  0  0  0  0  0  0  0  0  0
  -17.8165  -42.8291   -7.6897 C   0  0  0  0  0  0  0  0  0  0  0  0
  -17.4229  -43.8010   -8.6515 C   0  0  0  0  0  0  0  0  0  0  0  0
  -16.8333  -41.7393   -7.6923 C   0  0  0  0  0  0  0  0  0  0  0  0
  -15.5640  -42.0577   -7.7814 O   0  0  0  0  0  0  0  0  0  0  0  0
  -16.9570  -40.3343   -7.6187 N   0  0  0  0  0  0  0  0  0  0  0  0
  -18.1858  -39.6080   -8.0080 C   0  0  1  0  0  0  0  0  0  0  0  0
  -18.7645  -38.8884   -6.8695 C   0  0  0  0  0  0  0  0  0  0  0  0
  -20.2119  -38.9115   -6.5412 C   0  0  0  0  0  0  0  0  0  0  0  0
  -21.1310  -39.9046   -6.6340 C   0  0  0  0  0  0  0  0  0  0  0  0
  -22.4291  -39.6383   -6.1812 C   0  0  0  0  0  0  0  0  0  0  0  0
  -22.7594  -38.3926   -5.6601 C   0  0  0  0  0  0  0  0  0  0  0  0
  -21.8539  -37.3591   -5.5521 C   0  0  0  0  0  0  0  0  0  0  0  0
  -20.6002  -37.6526   -5.9981 C   0  0  0  0  0  0  0  0  0  0  0  0
  -23.5244  -40.4977   -6.1701 O   0  0  0  0  0  0  0  0  0  0  0  0
  -23.7776  -41.7221   -5.5176 C   0  0  0  0  0  0  0  0  0  0  0  0
  -22.6172  -42.2269   -4.7290 C   0  0  0  0  0  0  0  0  0  0  0  0
  -22.4041  -43.6905   -5.0430 C   0  0  0  0  0  0  0  0  0  0  0  0
  -22.2448  -43.9343   -6.5232 C   0  0  0  0  0  0  0  0  0  0  0  0
  -20.9854  -44.6055   -6.7266 N   0  0  0  0  0  0  0  0  0  0  0  0
  -17.7932  -38.7324   -9.1903 C   0  0  2  0  0  0  0  0  0  0  0  0
  -18.8669  -38.7240  -10.1109 O   0  0  0  0  0  0  0  0  0  0  0  0
  -16.6074  -39.2437   -9.9561 C   0  0  0  0  0  0  0  0  0  0  0  0
  -15.4797  -39.2980   -9.0493 N   0  0  0  0  0  0  0  0  0  0  0  0
  -14.7126  -38.0987   -8.9655 C   0  0  0  0  0  0  0  0  0  0  0  0
  -13.6970  -38.0637  -10.0770 C   0  0  0  0  0  0  0  0  0  0  0  0
  -12.9025  -39.0853  -10.5384 C   0  0  0  0  0  0  0  0  0  0  0  0
  -12.1529  -38.5866  -11.5403 N   0  0  0  0  0  0  0  0  0  0  0  0
  -12.4122  -37.3110  -11.7548 N   0  0  0  0  0  0  0  0  0  0  0  0
  -11.7982  -36.4439  -12.7525 C   0  0  0  0  0  0  0  0  0  0  0  0
  -12.6243  -36.4773  -14.0281 C   0  0  0  0  0  0  0  0  0  0  0  0
  -12.2254  -35.3651  -14.9636 C   0  0  0  0  0  0  0  0  0  0  0  0
  -12.4312  -37.7778  -14.7679 C   0  0  0  0  0  0  0  0  0  0  0  0
  -13.3691  -36.9705  -10.8545 C   0  0  0  0  0  0  0  0  0  0  0  0
  1  2  1  0
  2  3  1  0
  3  4  1  0
  4  5  2  0
  5  6  1  0
  6  7  2  0
  7  8  1  0
  8  9  2  0
  8 10  1  0
 10 11  2  0
 10 12  1  0
 12 13  1  0
 13 14  1  1
 14 15  1  0
 15 16  2  0
 16 17  1  0
 17 18  2  0
 18 19  1  0
 19 20  2  0
 17 21  1  0
 21 22  1  0
 22 23  1  0
 23 24  1  0
 24 25  1  0
 25 26  1  0
 13 27  1  0
 27 28  1  6
 27 29  1  0
 29 30  1  0
 30 31  1  0
 31 32  1  0
 32 33  1  0
 33 34  2  0
 34 35  1  0
 35 36  1  0
 36 37  1  0
 37 38  1  0
 37 39  1  0
 35 40  1  0
  9  4  1  0
 20 15  1  0
 26  6  1  0
 40 32  2  0
M  END
$$$$
