
     RDKit          3D

 40 43  0  0  0  0  0  0  0  0999 V2000
  -15.0679  -45.3323   -8.4377 C   0  0  0  0  0  0  0  0  0  0  0  0
  -16.3013  -44.7327   -8.6798 O   0  0  0  0  0  0  0  0  0  0  0  0
  -16.5659  -44.5914  -10.0233 C   0  0  0  0  0  0  0  0  0  0  0  0
  -16.9697  -43.2042  -10.3369 C   0  0  0  0  0  0  0  0  0  0  0  0
  -16.4991  -42.5403  -11.4362 C   0  0  0  0  0  0  0  0  0  0  0  0
  -16.8758  -41.2069  -11.7548 C   0  0  0  0  0  0  0  0  0  0  0  0
  -17.7546  -40.5181  -10.9483 C   0  0  0  0  0  0  0  0  0  0  0  0
  -18.2443  -41.1613   -9.8286 C   0  0  0  0  0  0  0  0  0  0  0  0
  -17.8338  -42.4962   -9.5561 C   0  0  0  0  0  0  0  0  0  0  0  0
  -19.1412  -40.7164   -8.7552 C   0  0  0  0  0  0  0  0  0  0  0  0
  -20.0312  -41.5688   -8.3059 O   0  0  0  0  0  0  0  0  0  0  0  0
  -19.2657  -39.4985   -8.0509 N   0  0  0  0  0  0  0  0  0  0  0  0
  -18.1619  -38.5218   -7.9208 C   0  0  1  0  0  0  0  0  0  0  0  0
  -18.5068  -37.2398   -8.5425 C   0  0  0  0  0  0  0  0  0  0  0  0
  -17.5840  -36.4911   -9.4320 C   0  0  0  0  0  0  0  0  0  0  0  0
  -16.6899  -36.9235  -10.3557 C   0  0  0  0  0  0  0  0  0  0  0  0
  -15.9961  -35.9581  -11.0959 C   0  0  0  0  0  0  0  0  0  0  0  0
  -16.2172  -34.6026  -10.8815 C   0  0  0  0  0  0  0  0  0  0  0  0
  -17.1152  -34.1256   -9.9509 C   0  0  0  0  0  0  0  0  0  0  0  0
  -17.7753  -35.0906   -9.2512 C   0  0  0  0  0  0  0  0  0  0  0  0
  -15.0462  -36.1642  -12.0927 O   0  0  0  0  0  0  0  0  0  0  0  0
  -15.1010  -36.7858  -13.3574 C   0  0  0  0  0  0  0  0  0  0  0  0
  -16.4262  -37.3972  -13.6628 C   0  0  0  0  0  0  0  0  0  0  0  0
  -16.2152  -38.7960  -14.1968 C   0  0  0  0  0  0  0  0  0  0  0  0
  -15.3928  -39.6423  -13.2569 C   0  0  0  0  0  0  0  0  0  0  0  0
  -16.1605  -40.8198  -12.9376 N   0  0  0  0  0  0  0  0  0  0  0  0
  -17.8441  -38.4507   -6.4333 C   0  0  2  0  0  0  0  0  0  0  0  0
  -16.4393  -38.3845   -6.2833 O   0  0  0  0  0  0  0  0  0  0  0  0
  -18.2768  -39.6641   -5.6622 C   0  0  0  0  0  0  0  0  0  0  0  0
  -18.8408  -39.2170   -4.4056 N   0  0  0  0  0  0  0  0  0  0  0  0
  -20.2325  -38.9078   -4.4431 C   0  0  0  0  0  0  0  0  0  0  0  0
  -20.9814  -40.0098   -5.1452 C   0  0  0  0  0  0  0  0  0  0  0  0
  -21.7544  -41.0020   -4.5921 C   0  0  0  0  0  0  0  0  0  0  0  0
  -22.2206  -41.7565   -5.6059 N   0  0  0  0  0  0  0  0  0  0  0  0
  -21.7988  -41.3159   -6.7757 N   0  0  0  0  0  0  0  0  0  0  0  0
  -22.0976  -41.8769   -8.0872 C   0  0  0  0  0  0  0  0  0  0  0  0
  -22.5539  -43.3182   -7.9283 C   0  0  0  0  0  0  0  0  0  0  0  0
  -24.0577  -43.4122   -7.8982 C   0  0  0  0  0  0  0  0  0  0  0  0
  -22.0730  -44.1713   -9.0759 C   0  0  0  0  0  0  0  0  0  0  0  0
  -21.0280  -40.2314   -6.5074 C   0  0  0  0  0  0  0  0  0  0  0  0
  1  2  1  0
  2  3  1  0
  3  4  1  0
  4  5  2  0
  5  6  1  0
  6  7  2  0
  7  8  1  0
  8  9  2  0
  8 10  1  0
 10 11  2  0
 10 12  1  0
 12 13  1  0
 13 14  1  1
 14 15  1  0
 15 16  2  0
 16 17  1  0
 17 18  2  0
 18 19  1  0
 19 20  2  0
 17 21  1  0
 21 22  1  0
 22 23  1  0
 23 24  1  0
 24 25  1  0
 25 26  1  0
 13 27  1  0
 27 28  1  6
 27 29  1  0
 29 30  1  0
 30 31  1  0
 31 32  1  0
 32 33  1  0
 33 34  2  0
 34 35  1  0
 35 36  1  0
 36 37  1  0
 37 38  1  0
 37 39  1  0
 35 40  1  0
  9  4  1  0
 20 15  1  0
 26  6  1  0
 40 32  2  0
M  END
$$$$
