
     RDKit          3D

 40 43  0  0  0  0  0  0  0  0999 V2000
  -15.7646  -34.7001  -11.6386 C   0  0  0  0  0  0  0  0  0  0  0  0
  -17.1016  -34.8856  -11.2957 O   0  0  0  0  0  0  0  0  0  0  0  0
  -17.7706  -35.6888  -12.1914 C   0  0  0  0  0  0  0  0  0  0  0  0
  -18.4156  -36.8250  -11.4992 C   0  0  0  0  0  0  0  0  0  0  0  0
  -19.7683  -36.8861  -11.3061 C   0  0  0  0  0  0  0  0  0  0  0  0
  -20.4069  -37.9699  -10.6435 C   0  0  0  0  0  0  0  0  0  0  0  0
  -19.6672  -39.0275  -10.1624 C   0  0  0  0  0  0  0  0  0  0  0  0
  -18.2980  -38.9924  -10.3395 C   0  0  0  0  0  0  0  0  0  0  0  0
  -17.7101  -37.8831  -11.0091 C   0  0  0  0  0  0  0  0  0  0  0  0
  -17.2309  -39.9094   -9.9215 C   0  0  0  0  0  0  0  0  0  0  0  0
  -16.2476  -40.1306  -10.7610 O   0  0  0  0  0  0  0  0  0  0  0  0
  -17.0107  -40.6517   -8.7403 N   0  0  0  0  0  0  0  0  0  0  0  0
  -17.5981  -40.2858   -7.4325 C   0  0  1  0  0  0  0  0  0  0  0  0
  -18.4944  -41.3347   -6.9372 C   0  0  0  0  0  0  0  0  0  0  0  0
  -19.8371  -41.0576   -6.3683 C   0  0  0  0  0  0  0  0  0  0  0  0
  -20.7766  -40.1399   -6.7072 C   0  0  0  0  0  0  0  0  0  0  0  0
  -21.9933  -40.1634   -6.0143 C   0  0  0  0  0  0  0  0  0  0  0  0
  -22.2217  -41.0958   -5.0090 C   0  0  0  0  0  0  0  0  0  0  0  0
  -21.2910  -42.0414   -4.6354 C   0  0  0  0  0  0  0  0  0  0  0  0
  -20.1206  -41.9931   -5.3314 C   0  0  0  0  0  0  0  0  0  0  0  0
  -23.0959  -39.3324   -6.1935 O   0  0  0  0  0  0  0  0  0  0  0  0
  -23.9650  -39.1117   -7.2819 C   0  0  0  0  0  0  0  0  0  0  0  0
  -23.5922  -39.8777   -8.5056 C   0  0  0  0  0  0  0  0  0  0  0  0
  -23.6255  -38.9507   -9.6997 C   0  0  0  0  0  0  0  0  0  0  0  0
  -22.7582  -37.7333   -9.4951 C   0  0  0  0  0  0  0  0  0  0  0  0
  -21.8112  -37.6791  -10.5805 N   0  0  0  0  0  0  0  0  0  0  0  0
  -16.4193  -39.9645   -6.5237 C   0  0  2  0  0  0  0  0  0  0  0  0
  -16.5283  -38.6140   -6.1179 O   0  0  0  0  0  0  0  0  0  0  0  0
  -15.0838  -40.0775   -7.2000 C   0  0  0  0  0  0  0  0  0  0  0  0
  -15.2938  -40.6605   -8.5088 N   0  0  0  0  0  0  0  0  0  0  0  0
  -14.2431  -40.4361   -9.4466 C   0  0  0  0  0  0  0  0  0  0  0  0
  -13.4303  -41.6930   -9.6128 C   0  0  0  0  0  0  0  0  0  0  0  0
  -13.5705  -42.6803  -10.5580 C   0  0  0  0  0  0  0  0  0  0  0  0
  -12.6229  -43.6056  -10.3123 N   0  0  0  0  0  0  0  0  0  0  0  0
  -11.8816  -43.2796   -9.2709 N   0  0  0  0  0  0  0  0  0  0  0  0
  -10.7675  -44.0354   -8.7126 C   0  0  0  0  0  0  0  0  0  0  0  0
   -9.5839  -43.9682   -9.6641 C   0  0  0  0  0  0  0  0  0  0  0  0
   -8.3778  -43.3666   -8.9900 C   0  0  0  0  0  0  0  0  0  0  0  0
   -9.1917  -45.3439  -10.1433 C   0  0  0  0  0  0  0  0  0  0  0  0
  -12.3697  -42.0943   -8.8247 C   0  0  0  0  0  0  0  0  0  0  0  0
  1  2  1  0
  2  3  1  0
  3  4  1  0
  4  5  2  0
  5  6  1  0
  6  7  2  0
  7  8  1  0
  8  9  2  0
  8 10  1  0
 10 11  2  0
 10 12  1  0
 12 13  1  0
 13 14  1  1
 14 15  1  0
 15 16  2  0
 16 17  1  0
 17 18  2  0
 18 19  1  0
 19 20  2  0
 17 21  1  0
 21 22  1  0
 22 23  1  0
 23 24  1  0
 24 25  1  0
 25 26  1  0
 13 27  1  0
 27 28  1  6
 27 29  1  0
 29 30  1  0
 30 31  1  0
 31 32  1  0
 32 33  1  0
 33 34  2  0
 34 35  1  0
 35 36  1  0
 36 37  1  0
 37 38  1  0
 37 39  1  0
 35 40  1  0
  9  4  1  0
 20 15  1  0
 26  6  1  0
 40 32  2  0
M  END
$$$$
