
     RDKit          3D

 40 43  0  0  0  0  0  0  0  0999 V2000
  -13.9458  -45.9851  -11.4707 C   0  0  0  0  0  0  0  0  0  0  0  0
  -14.5188  -45.0807  -10.5800 O   0  0  0  0  0  0  0  0  0  0  0  0
  -15.6158  -44.4399  -11.1098 C   0  0  0  0  0  0  0  0  0  0  0  0
  -16.5027  -43.9413  -10.0371 C   0  0  0  0  0  0  0  0  0  0  0  0
  -17.7784  -44.4066   -9.8729 C   0  0  0  0  0  0  0  0  0  0  0  0
  -18.6460  -43.9402   -8.8476 C   0  0  0  0  0  0  0  0  0  0  0  0
  -18.2208  -42.9797   -7.9566 C   0  0  0  0  0  0  0  0  0  0  0  0
  -16.9382  -42.4881   -8.0993 C   0  0  0  0  0  0  0  0  0  0  0  0
  -16.1118  -42.9894   -9.1435 C   0  0  0  0  0  0  0  0  0  0  0  0
  -16.1976  -41.4523   -7.3691 C   0  0  0  0  0  0  0  0  0  0  0  0
  -14.9281  -41.6665   -7.1185 O   0  0  0  0  0  0  0  0  0  0  0  0
  -16.5699  -40.1945   -6.8455 N   0  0  0  0  0  0  0  0  0  0  0  0
  -17.7222  -39.4159   -7.3506 C   0  0  1  0  0  0  0  0  0  0  0  0
  -18.7343  -39.2221   -6.3081 C   0  0  0  0  0  0  0  0  0  0  0  0
  -20.1875  -39.4217   -6.5359 C   0  0  0  0  0  0  0  0  0  0  0  0
  -20.8547  -40.3289   -7.2917 C   0  0  0  0  0  0  0  0  0  0  0  0
  -22.2545  -40.3065   -7.2560 C   0  0  0  0  0  0  0  0  0  0  0  0
  -22.9315  -39.3782   -6.4736 C   0  0  0  0  0  0  0  0  0  0  0  0
  -22.2884  -38.4402   -5.6949 C   0  0  0  0  0  0  0  0  0  0  0  0
  -20.9278  -38.4918   -5.7499 C   0  0  0  0  0  0  0  0  0  0  0  0
  -23.1410  -41.1378   -7.9353 O   0  0  0  0  0  0  0  0  0  0  0  0
  -23.3752  -42.5279   -7.8964 C   0  0  0  0  0  0  0  0  0  0  0  0
  -22.4468  -43.2624   -6.9898 C   0  0  0  0  0  0  0  0  0  0  0  0
  -21.9070  -44.4765   -7.7116 C   0  0  0  0  0  0  0  0  0  0  0  0
  -21.2617  -44.1129   -9.0259 C   0  0  0  0  0  0  0  0  0  0  0  0
  -19.9077  -44.6067   -9.0039 N   0  0  0  0  0  0  0  0  0  0  0  0
  -17.1363  -38.1331   -7.9250 C   0  0  2  0  0  0  0  0  0  0  0  0
  -18.1282  -37.5088   -8.7166 O   0  0  0  0  0  0  0  0  0  0  0  0
  -15.9686  -38.3571   -8.8416 C   0  0  0  0  0  0  0  0  0  0  0  0
  -16.4792  -38.4976  -10.1894 N   0  0  0  0  0  0  0  0  0  0  0  0
  -15.9653  -37.5588  -11.1319 C   0  0  0  0  0  0  0  0  0  0  0  0
  -14.4749  -37.7311  -11.2630 C   0  0  0  0  0  0  0  0  0  0  0  0
  -13.5030  -37.4935  -10.3214 C   0  0  0  0  0  0  0  0  0  0  0  0
  -12.3172  -37.7867  -10.8890 N   0  0  0  0  0  0  0  0  0  0  0  0
  -12.4610  -38.1975  -12.1343 N   0  0  0  0  0  0  0  0  0  0  0  0
  -11.4058  -38.5993  -13.0558 C   0  0  0  0  0  0  0  0  0  0  0  0
  -10.8921  -39.9760  -12.6666 C   0  0  0  0  0  0  0  0  0  0  0  0
  -11.9479  -40.7632  -11.9340 C   0  0  0  0  0  0  0  0  0  0  0  0
  -10.4998  -40.7752  -13.8846 C   0  0  0  0  0  0  0  0  0  0  0  0
  -13.7951  -38.1689  -12.3825 C   0  0  0  0  0  0  0  0  0  0  0  0
  1  2  1  0
  2  3  1  0
  3  4  1  0
  4  5  2  0
  5  6  1  0
  6  7  2  0
  7  8  1  0
  8  9  2  0
  8 10  1  0
 10 11  2  0
 10 12  1  0
 12 13  1  0
 13 14  1  1
 14 15  1  0
 15 16  2  0
 16 17  1  0
 17 18  2  0
 18 19  1  0
 19 20  2  0
 17 21  1  0
 21 22  1  0
 22 23  1  0
 23 24  1  0
 24 25  1  0
 25 26  1  0
 13 27  1  0
 27 28  1  6
 27 29  1  0
 29 30  1  0
 30 31  1  0
 31 32  1  0
 32 33  1  0
 33 34  2  0
 34 35  1  0
 35 36  1  0
 36 37  1  0
 37 38  1  0
 37 39  1  0
 35 40  1  0
  9  4  1  0
 20 15  1  0
 26  6  1  0
 40 32  2  0
M  END
$$$$
