
     RDKit          3D

 40 43  0  0  0  0  0  0  0  0999 V2000
  -21.6012  -46.6593   -7.6010 C   0  0  0  0  0  0  0  0  0  0  0  0
  -21.0140  -45.4109   -7.4111 O   0  0  0  0  0  0  0  0  0  0  0  0
  -19.7067  -45.5003   -6.9892 C   0  0  0  0  0  0  0  0  0  0  0  0
  -18.8050  -44.7812   -7.9143 C   0  0  0  0  0  0  0  0  0  0  0  0
  -17.7601  -45.4024   -8.5413 C   0  0  0  0  0  0  0  0  0  0  0  0
  -16.8826  -44.7284   -9.4342 C   0  0  0  0  0  0  0  0  0  0  0  0
  -17.0598  -43.3906   -9.7102 C   0  0  0  0  0  0  0  0  0  0  0  0
  -18.1048  -42.7353   -9.0891 C   0  0  0  0  0  0  0  0  0  0  0  0
  -18.9527  -43.4576   -8.2038 C   0  0  0  0  0  0  0  0  0  0  0  0
  -18.5423  -41.3346   -9.1217 C   0  0  0  0  0  0  0  0  0  0  0  0
  -19.8315  -41.0945   -9.1497 O   0  0  0  0  0  0  0  0  0  0  0  0
  -17.8401  -40.1091   -9.1267 N   0  0  0  0  0  0  0  0  0  0  0  0
  -16.4619  -39.9634   -8.6087 C   0  0  1  0  0  0  0  0  0  0  0  0
  -15.5352  -39.5469   -9.6654 C   0  0  0  0  0  0  0  0  0  0  0  0
  -14.2048  -40.1709   -9.8751 C   0  0  0  0  0  0  0  0  0  0  0  0
  -13.7938  -41.4572   -9.7488 C   0  0  0  0  0  0  0  0  0  0  0  0
  -12.4669  -41.7554  -10.0828 C   0  0  0  0  0  0  0  0  0  0  0  0
  -11.6030  -40.7594  -10.5231 C   0  0  0  0  0  0  0  0  0  0  0  0
  -11.9834  -39.4419  -10.6617 C   0  0  0  0  0  0  0  0  0  0  0  0
  -13.2808  -39.1870  -10.3320 C   0  0  0  0  0  0  0  0  0  0  0  0
  -11.8315  -42.9935  -10.0400 O   0  0  0  0  0  0  0  0  0  0  0  0
  -12.0512  -44.2094  -10.7198 C   0  0  0  0  0  0  0  0  0  0  0  0
  -13.2390  -44.1810  -11.6207 C   0  0  0  0  0  0  0  0  0  0  0  0
  -14.0685  -45.4233  -11.3861 C   0  0  0  0  0  0  0  0  0  0  0  0
  -14.4493  -45.5836   -9.9352 C   0  0  0  0  0  0  0  0  0  0  0  0
  -15.8865  -45.6686   -9.8632 N   0  0  0  0  0  0  0  0  0  0  0  0
  -16.5617  -39.0082   -7.4270 C   0  0  2  0  0  0  0  0  0  0  0  0
  -15.8961  -39.5951   -6.3257 O   0  0  0  0  0  0  0  0  0  0  0  0
  -17.9685  -38.7606   -6.9647 C   0  0  0  0  0  0  0  0  0  0  0  0
  -18.5021  -37.6536   -7.7308 N   0  0  0  0  0  0  0  0  0  0  0  0
  -19.5049  -38.0042   -8.6822 C   0  0  0  0  0  0  0  0  0  0  0  0
  -20.6767  -38.6370   -7.9789 C   0  0  0  0  0  0  0  0  0  0  0  0
  -21.8736  -38.0604   -7.6288 C   0  0  0  0  0  0  0  0  0  0  0  0
  -22.6103  -39.0090   -7.0189 N   0  0  0  0  0  0  0  0  0  0  0  0
  -21.9668  -40.1587   -6.9531 N   0  0  0  0  0  0  0  0  0  0  0  0
  -22.4466  -41.4033   -6.3657 C   0  0  0  0  0  0  0  0  0  0  0  0
  -23.4822  -41.0917   -5.2975 C   0  0  0  0  0  0  0  0  0  0  0  0
  -24.8612  -41.5101   -5.7385 C   0  0  0  0  0  0  0  0  0  0  0  0
  -23.1787  -41.8253   -4.0146 C   0  0  0  0  0  0  0  0  0  0  0  0
  -20.7642  -39.9450   -7.5449 C   0  0  0  0  0  0  0  0  0  0  0  0
  1  2  1  0
  2  3  1  0
  3  4  1  0
  4  5  2  0
  5  6  1  0
  6  7  2  0
  7  8  1  0
  8  9  2  0
  8 10  1  0
 10 11  2  0
 10 12  1  0
 12 13  1  0
 13 14  1  6
 14 15  1  0
 15 16  2  0
 16 17  1  0
 17 18  2  0
 18 19  1  0
 19 20  2  0
 17 21  1  0
 21 22  1  0
 22 23  1  0
 23 24  1  0
 24 25  1  0
 25 26  1  0
 13 27  1  0
 27 28  1  1
 27 29  1  0
 29 30  1  0
 30 31  1  0
 31 32  1  0
 32 33  1  0
 33 34  2  0
 34 35  1  0
 35 36  1  0
 36 37  1  0
 37 38  1  0
 37 39  1  0
 35 40  1  0
  9  4  1  0
 20 15  1  0
 26  6  1  0
 40 32  2  0
M  END
$$$$
