
     RDKit          3D

 40 43  0  0  0  0  0  0  0  0999 V2000
  -19.6882  -47.9700  -11.0065 C   0  0  0  0  0  0  0  0  0  0  0  0
  -20.1743  -47.1178  -10.0181 O   0  0  0  0  0  0  0  0  0  0  0  0
  -19.4245  -47.1639   -8.8646 C   0  0  0  0  0  0  0  0  0  0  0  0
  -19.4633  -45.8650   -8.1596 C   0  0  0  0  0  0  0  0  0  0  0  0
  -20.4440  -45.5558   -7.2576 C   0  0  0  0  0  0  0  0  0  0  0  0
  -20.4982  -44.3128   -6.5695 C   0  0  0  0  0  0  0  0  0  0  0  0
  -19.5376  -43.3505   -6.7895 C   0  0  0  0  0  0  0  0  0  0  0  0
  -18.5362  -43.6326   -7.6978 C   0  0  0  0  0  0  0  0  0  0  0  0
  -18.5298  -44.8923   -8.3593 C   0  0  0  0  0  0  0  0  0  0  0  0
  -17.4073  -42.8354   -8.1924 C   0  0  0  0  0  0  0  0  0  0  0  0
  -16.2598  -43.4436   -8.3757 O   0  0  0  0  0  0  0  0  0  0  0  0
  -17.2732  -41.4731   -8.5404 N   0  0  0  0  0  0  0  0  0  0  0  0
  -18.4165  -40.6227   -8.9387 C   0  0  1  0  0  0  0  0  0  0  0  0
  -18.6052  -39.5092   -8.0042 C   0  0  0  0  0  0  0  0  0  0  0  0
  -19.9300  -39.1152   -7.4628 C   0  0  0  0  0  0  0  0  0  0  0  0
  -21.0015  -39.8622   -7.0976 C   0  0  0  0  0  0  0  0  0  0  0  0
  -22.1069  -39.1972   -6.5527 C   0  0  0  0  0  0  0  0  0  0  0  0
  -22.1015  -37.8156   -6.3993 C   0  0  0  0  0  0  0  0  0  0  0  0
  -21.0330  -37.0235   -6.7607 C   0  0  0  0  0  0  0  0  0  0  0  0
  -19.9735  -37.7021   -7.2839 C   0  0  0  0  0  0  0  0  0  0  0  0
  -23.3028  -39.7512   -6.1040 O   0  0  0  0  0  0  0  0  0  0  0  0
  -23.6117  -40.6619   -5.0724 C   0  0  0  0  0  0  0  0  0  0  0  0
  -22.4104  -41.1810   -4.3578 C   0  0  0  0  0  0  0  0  0  0  0  0
  -22.5204  -42.6837   -4.2309 C   0  0  0  0  0  0  0  0  0  0  0  0
  -22.7286  -43.3506   -5.5680 C   0  0  0  0  0  0  0  0  0  0  0  0
  -21.6748  -44.3177   -5.7473 N   0  0  0  0  0  0  0  0  0  0  0  0
  -18.1471  -40.2141  -10.3806 C   0  0  2  0  0  0  0  0  0  0  0  0
  -19.2273  -40.6609  -11.1768 O   0  0  0  0  0  0  0  0  0  0  0  0
  -16.9202  -40.8468  -10.9710 C   0  0  0  0  0  0  0  0  0  0  0  0
  -15.7655  -40.1198  -10.4863 N   0  0  0  0  0  0  0  0  0  0  0  0
  -14.7372  -39.9052  -11.4508 C   0  0  0  0  0  0  0  0  0  0  0  0
  -13.9479  -38.6743  -11.0901 C   0  0  0  0  0  0  0  0  0  0  0  0
  -14.4174  -37.4205  -10.7815 C   0  0  0  0  0  0  0  0  0  0  0  0
  -13.3461  -36.6440  -10.5291 N   0  0  0  0  0  0  0  0  0  0  0  0
  -12.2172  -37.3150  -10.6549 N   0  0  0  0  0  0  0  0  0  0  0  0
  -10.8651  -36.8067  -10.4609 C   0  0  0  0  0  0  0  0  0  0  0  0
  -10.1635  -36.7105  -11.8060 C   0  0  0  0  0  0  0  0  0  0  0  0
  -10.0625  -35.2789  -12.2654 C   0  0  0  0  0  0  0  0  0  0  0  0
   -8.7598  -37.2578  -11.7282 C   0  0  0  0  0  0  0  0  0  0  0  0
  -12.5731  -38.5777  -11.0029 C   0  0  0  0  0  0  0  0  0  0  0  0
  1  2  1  0
  2  3  1  0
  3  4  1  0
  4  5  2  0
  5  6  1  0
  6  7  2  0
  7  8  1  0
  8  9  2  0
  8 10  1  0
 10 11  2  0
 10 12  1  0
 12 13  1  0
 13 14  1  1
 14 15  1  0
 15 16  2  0
 16 17  1  0
 17 18  2  0
 18 19  1  0
 19 20  2  0
 17 21  1  0
 21 22  1  0
 22 23  1  0
 23 24  1  0
 24 25  1  0
 25 26  1  0
 13 27  1  0
 27 28  1  6
 27 29  1  0
 29 30  1  0
 30 31  1  0
 31 32  1  0
 32 33  1  0
 33 34  2  0
 34 35  1  0
 35 36  1  0
 36 37  1  0
 37 38  1  0
 37 39  1  0
 35 40  1  0
  9  4  1  0
 20 15  1  0
 26  6  1  0
 40 32  2  0
M  END
$$$$
