
     RDKit          3D

 40 43  0  0  0  0  0  0  0  0999 V2000
  -15.7456  -46.7155   -9.9233 C   0  0  0  0  0  0  0  0  0  0  0  0
  -15.0026  -45.6160  -10.3458 O   0  0  0  0  0  0  0  0  0  0  0  0
  -15.0137  -44.5873   -9.4312 C   0  0  0  0  0  0  0  0  0  0  0  0
  -15.7968  -43.4406   -9.9387 C   0  0  0  0  0  0  0  0  0  0  0  0
  -15.2458  -42.4834  -10.7456 C   0  0  0  0  0  0  0  0  0  0  0  0
  -15.9823  -41.3740  -11.2439 C   0  0  0  0  0  0  0  0  0  0  0  0
  -17.3138  -41.2206  -10.9264 C   0  0  0  0  0  0  0  0  0  0  0  0
  -17.8972  -42.1697  -10.1103 C   0  0  0  0  0  0  0  0  0  0  0  0
  -17.1140  -43.2600   -9.6388 C   0  0  0  0  0  0  0  0  0  0  0  0
  -19.2498  -42.2858   -9.5521 C   0  0  0  0  0  0  0  0  0  0  0  0
  -19.7948  -43.4781   -9.5059 O   0  0  0  0  0  0  0  0  0  0  0  0
  -20.1520  -41.3403   -9.0165 N   0  0  0  0  0  0  0  0  0  0  0  0
  -19.7236  -40.0411   -8.4529 C   0  0  1  0  0  0  0  0  0  0  0  0
  -20.2885  -38.9188   -9.2079 C   0  0  0  0  0  0  0  0  0  0  0  0
  -19.4933  -37.7393   -9.6320 C   0  0  0  0  0  0  0  0  0  0  0  0
  -18.2095  -37.6362  -10.0572 C   0  0  0  0  0  0  0  0  0  0  0  0
  -17.7519  -36.3737  -10.4546 C   0  0  0  0  0  0  0  0  0  0  0  0
  -18.5898  -35.2656  -10.4065 C   0  0  0  0  0  0  0  0  0  0  0  0
  -19.8984  -35.3309   -9.9783 C   0  0  0  0  0  0  0  0  0  0  0  0
  -20.3123  -36.5736   -9.6027 C   0  0  0  0  0  0  0  0  0  0  0  0
  -16.4884  -36.0322  -10.9293 O   0  0  0  0  0  0  0  0  0  0  0  0
  -15.7533  -36.4210  -12.0683 C   0  0  0  0  0  0  0  0  0  0  0  0
  -16.4432  -37.4492  -12.8991 C   0  0  0  0  0  0  0  0  0  0  0  0
  -15.4644  -38.5509  -13.2374 C   0  0  0  0  0  0  0  0  0  0  0  0
  -14.8268  -39.1399  -12.0034 C   0  0  0  0  0  0  0  0  0  0  0  0
  -15.0825  -40.5585  -12.0092 N   0  0  0  0  0  0  0  0  0  0  0  0
  -20.1051  -40.0822   -6.9793 C   0  0  2  0  0  0  0  0  0  0  0  0
  -19.0430  -39.5229   -6.2312 O   0  0  0  0  0  0  0  0  0  0  0  0
  -20.2928  -41.4707   -6.4400 C   0  0  0  0  0  0  0  0  0  0  0  0
  -19.0187  -41.9252   -5.9232 N   0  0  0  0  0  0  0  0  0  0  0  0
  -18.7506  -41.5624   -4.5703 C   0  0  0  0  0  0  0  0  0  0  0  0
  -19.8554  -42.0649   -3.6786 C   0  0  0  0  0  0  0  0  0  0  0  0
  -20.4433  -43.3068   -3.6669 C   0  0  0  0  0  0  0  0  0  0  0  0
  -21.3830  -43.2943   -2.7020 N   0  0  0  0  0  0  0  0  0  0  0  0
  -21.4395  -42.1262   -2.0914 N   0  0  0  0  0  0  0  0  0  0  0  0
  -22.3300  -41.7445   -1.0026 C   0  0  0  0  0  0  0  0  0  0  0  0
  -21.9264  -42.4834    0.2630 C   0  0  0  0  0  0  0  0  0  0  0  0
  -22.0950  -41.6103    1.4796 C   0  0  0  0  0  0  0  0  0  0  0  0
  -22.7765  -43.7124    0.4705 C   0  0  0  0  0  0  0  0  0  0  0  0
  -20.4971  -41.3512   -2.6858 C   0  0  0  0  0  0  0  0  0  0  0  0
  1  2  1  0
  2  3  1  0
  3  4  1  0
  4  5  2  0
  5  6  1  0
  6  7  2  0
  7  8  1  0
  8  9  2  0
  8 10  1  0
 10 11  2  0
 10 12  1  0
 12 13  1  0
 13 14  1  6
 14 15  1  0
 15 16  2  0
 16 17  1  0
 17 18  2  0
 18 19  1  0
 19 20  2  0
 17 21  1  0
 21 22  1  0
 22 23  1  0
 23 24  1  0
 24 25  1  0
 25 26  1  0
 13 27  1  0
 27 28  1  1
 27 29  1  0
 29 30  1  0
 30 31  1  0
 31 32  1  0
 32 33  1  0
 33 34  2  0
 34 35  1  0
 35 36  1  0
 36 37  1  0
 37 38  1  0
 37 39  1  0
 35 40  1  0
  9  4  1  0
 20 15  1  0
 26  6  1  0
 40 32  2  0
M  END
$$$$
