
     RDKit          3D

 40 40  0  0  0  0  0  0  0  0999 V2000
  -11.2967  -35.8825  -13.4276 C   0  0  0  0  0  0  0  0  0  0  0  0
  -11.8093  -36.5003  -12.1209 C   0  0  0  0  0  0  0  0  0  0  0  0
  -13.2696  -36.1904  -11.9800 C   0  0  0  0  0  0  0  0  0  0  0  0
  -14.1261  -37.3878  -11.7726 C   0  0  0  0  0  0  0  0  0  0  0  0
  -14.2798  -37.7864  -10.3837 N   0  0  0  0  0  0  0  0  0  0  0  0
  -14.6150  -39.1222  -10.0553 C   0  0  0  0  0  0  0  0  0  0  0  0
  -14.9259  -39.8984  -10.9888 O   0  0  0  0  0  0  0  0  0  0  0  0
  -14.6093  -39.6172   -8.6752 C   0  0  2  0  0  0  0  0  0  0  0  0
  -13.4080  -40.4964   -8.4455 C   0  0  0  0  0  0  0  0  0  0  0  0
  -15.9134  -40.3118   -8.3110 C   0  0  0  0  0  0  0  0  0  0  0  0
  -17.1013  -39.4551   -8.5650 C   0  0  2  0  0  0  0  0  0  0  0  0
  -16.8312  -38.1200   -8.1398 O   0  0  0  0  0  0  0  0  0  0  0  0
  -18.3365  -39.8753   -7.7543 C   0  0  2  0  0  0  0  0  0  0  0  0
  -19.0779  -38.6252   -7.3049 C   0  0  0  0  0  0  0  0  0  0  0  0
  -20.1796  -38.1978   -8.2105 C   0  0  2  0  0  0  0  0  0  0  0  0
  -20.1998  -36.6613   -8.2613 C   0  0  0  0  0  0  0  0  0  0  0  0
  -21.5268  -38.5961   -7.6116 C   0  0  0  0  0  0  0  0  0  0  0  0
  -21.8423  -39.9709   -8.1932 C   0  0  0  0  0  0  0  0  0  0  0  0
  -23.2994  -40.2440   -7.9303 C   0  0  0  0  0  0  0  0  0  0  0  0
  -23.4061  -40.7926   -6.5163 C   0  0  0  0  0  0  0  0  0  0  0  0
  -22.9794  -42.2496   -6.5261 C   0  0  0  0  0  0  0  0  0  0  0  0
  -22.7529  -42.7263   -5.1495 C   0  0  0  0  0  0  0  0  0  0  0  0
  -22.3384  -44.1461   -4.9995 C   0  0  0  0  0  0  0  0  0  0  0  0
  -21.8523  -44.8592   -6.2007 C   0  0  2  0  0  0  0  0  0  0  0  0
  -21.6020  -46.2490   -5.8786 N   0  0  0  0  0  0  0  0  0  0  0  0
  -21.0565  -47.2252   -6.7304 C   0  0  0  0  0  0  0  0  0  0  0  0
  -20.9826  -47.1263   -7.9713 O   0  0  0  0  0  0  0  0  0  0  0  0
  -20.5361  -48.4283   -6.2020 O   0  0  0  0  0  0  0  0  0  0  0  0
  -19.7812  -49.2547   -7.0585 C   0  0  0  0  0  0  0  0  0  0  0  0
  -20.0911  -49.0503   -8.5220 C   0  0  0  0  0  0  0  0  0  0  0  0
  -19.8284  -50.6969   -6.6648 C   0  0  0  0  0  0  0  0  0  0  0  0
  -18.3080  -48.7962   -6.9024 C   0  0  0  0  0  0  0  0  0  0  0  0
  -20.7549  -44.3333   -6.9837 C   0  0  0  0  0  0  0  0  0  0  0  0
  -20.9101  -44.4980   -8.2632 O   0  0  0  0  0  0  0  0  0  0  0  0
  -19.5635  -43.6899   -6.6203 N   0  0  0  0  0  0  0  0  0  0  0  0
  -19.3340  -42.5168   -5.8187 C   0  0  1  0  0  0  0  0  0  0  0  0
  -19.1344  -43.0243   -4.3820 C   0  0  0  0  0  0  0  0  0  0  0  0
  -18.0192  -41.8610   -6.1561 C   0  0  0  0  0  0  0  0  0  0  0  0
  -17.0218  -42.6390   -6.0288 O   0  0  0  0  0  0  0  0  0  0  0  0
  -17.8023  -40.5636   -6.5698 N   0  0  0  0  0  0  0  0  0  0  0  0
  1  2  1  0
  2  3  1  0
  3  4  1  0
  4  5  1  0
  5  6  1  0
  6  7  2  0
  6  8  1  0
  8  9  1  6
  8 10  1  0
 10 11  1  0
 11 12  1  1
 11 13  1  0
 13 14  1  1
 14 15  1  0
 15 16  1  1
 15 17  1  0
 17 18  1  0
 18 19  1  0
 19 20  1  0
 20 21  1  0
 21 22  1  0
 22 23  1  0
 23 24  1  0
 24 25  1  1
 25 26  1  0
 26 27  2  0
 26 28  1  0
 28 29  1  0
 29 30  1  0
 29 31  1  0
 29 32  1  0
 24 33  1  0
 33 34  2  0
 33 35  1  0
 35 36  1  0
 36 37  1  1
 36 38  1  0
 38 39  2  0
 38 40  1  0
 40 13  1  0
M  END
$$$$
