
     RDKit          3D

 40 40  0  0  0  0  0  0  0  0999 V2000
  -12.2352  -35.4082  -12.1155 C   0  0  0  0  0  0  0  0  0  0  0  0
  -13.2092  -36.5180  -12.5296 C   0  0  0  0  0  0  0  0  0  0  0  0
  -13.3810  -37.4642  -11.3791 C   0  0  0  0  0  0  0  0  0  0  0  0
  -12.7244  -38.7836  -11.5762 C   0  0  0  0  0  0  0  0  0  0  0  0
  -12.7881  -39.6673  -10.4245 N   0  0  0  0  0  0  0  0  0  0  0  0
  -14.0398  -40.0676   -9.8978 C   0  0  0  0  0  0  0  0  0  0  0  0
  -14.9247  -40.4431  -10.7020 O   0  0  0  0  0  0  0  0  0  0  0  0
  -14.3275  -40.0560   -8.4602 C   0  0  2  0  0  0  0  0  0  0  0  0
  -13.3207  -40.9004   -7.7240 C   0  0  0  0  0  0  0  0  0  0  0  0
  -15.7607  -40.4702   -8.1600 C   0  0  0  0  0  0  0  0  0  0  0  0
  -16.6969  -39.3156   -8.1662 C   0  0  2  0  0  0  0  0  0  0  0  0
  -16.1364  -38.2380   -7.4173 O   0  0  0  0  0  0  0  0  0  0  0  0
  -18.0331  -39.6147   -7.4702 C   0  0  2  0  0  0  0  0  0  0  0  0
  -18.5893  -38.3198   -6.8971 C   0  0  0  0  0  0  0  0  0  0  0  0
  -19.5469  -37.6079   -7.7874 C   0  0  2  0  0  0  0  0  0  0  0  0
  -19.3144  -36.0951   -7.6421 C   0  0  0  0  0  0  0  0  0  0  0  0
  -20.9763  -37.8414   -7.3033 C   0  0  0  0  0  0  0  0  0  0  0  0
  -21.4727  -39.0642   -8.0691 C   0  0  0  0  0  0  0  0  0  0  0  0
  -22.9686  -39.1167   -7.9066 C   0  0  0  0  0  0  0  0  0  0  0  0
  -23.2530  -39.8036   -6.5804 C   0  0  0  0  0  0  0  0  0  0  0  0
  -23.0685  -41.3000   -6.7579 C   0  0  0  0  0  0  0  0  0  0  0  0
  -23.0108  -41.9684   -5.4451 C   0  0  0  0  0  0  0  0  0  0  0  0
  -22.8424  -43.4454   -5.4601 C   0  0  0  0  0  0  0  0  0  0  0  0
  -22.4024  -44.0824   -6.7204 C   0  0  2  0  0  0  0  0  0  0  0  0
  -22.4019  -45.5228   -6.5681 N   0  0  0  0  0  0  0  0  0  0  0  0
  -21.9920  -46.4697   -7.5228 C   0  0  0  0  0  0  0  0  0  0  0  0
  -21.7609  -46.2177   -8.7220 O   0  0  0  0  0  0  0  0  0  0  0  0
  -21.8094  -47.8229   -7.1582 O   0  0  0  0  0  0  0  0  0  0  0  0
  -20.5609  -48.4182   -7.4295 C   0  0  0  0  0  0  0  0  0  0  0  0
  -20.1335  -48.2932   -8.8721 C   0  0  0  0  0  0  0  0  0  0  0  0
  -20.4670  -49.8249   -6.9300 C   0  0  0  0  0  0  0  0  0  0  0  0
  -19.5145  -47.5915   -6.6379 C   0  0  0  0  0  0  0  0  0  0  0  0
  -21.1865  -43.6600   -7.3815 C   0  0  0  0  0  0  0  0  0  0  0  0
  -21.2842  -43.6428   -8.6771 O   0  0  0  0  0  0  0  0  0  0  0  0
  -19.9323  -43.2747   -6.8875 N   0  0  0  0  0  0  0  0  0  0  0  0
  -19.5674  -42.2610   -5.9333 C   0  0  1  0  0  0  0  0  0  0  0  0
  -19.5450  -42.9621   -4.5660 C   0  0  0  0  0  0  0  0  0  0  0  0
  -18.1448  -41.8012   -6.1268 C   0  0  0  0  0  0  0  0  0  0  0  0
  -17.2969  -42.7459   -6.0570 O   0  0  0  0  0  0  0  0  0  0  0  0
  -17.6944  -40.5192   -6.3613 N   0  0  0  0  0  0  0  0  0  0  0  0
  1  2  1  0
  2  3  1  0
  3  4  1  0
  4  5  1  0
  5  6  1  0
  6  7  2  0
  6  8  1  0
  8  9  1  1
  8 10  1  0
 10 11  1  0
 11 12  1  1
 11 13  1  0
 13 14  1  1
 14 15  1  0
 15 16  1  1
 15 17  1  0
 17 18  1  0
 18 19  1  0
 19 20  1  0
 20 21  1  0
 21 22  1  0
 22 23  1  0
 23 24  1  0
 24 25  1  1
 25 26  1  0
 26 27  2  0
 26 28  1  0
 28 29  1  0
 29 30  1  0
 29 31  1  0
 29 32  1  0
 24 33  1  0
 33 34  2  0
 33 35  1  0
 35 36  1  0
 36 37  1  1
 36 38  1  0
 38 39  2  0
 38 40  1  0
 40 13  1  0
M  END
$$$$
