
     RDKit          3D

 40 40  0  0  0  0  0  0  0  0999 V2000
  -13.0498  -42.1734  -15.1580 C   0  0  0  0  0  0  0  0  0  0  0  0
  -13.9746  -41.6594  -14.0478 C   0  0  0  0  0  0  0  0  0  0  0  0
  -13.4267  -40.3664  -13.5224 C   0  0  0  0  0  0  0  0  0  0  0  0
  -13.0663  -40.4022  -12.0804 C   0  0  0  0  0  0  0  0  0  0  0  0
  -13.9950  -39.7026  -11.2089 N   0  0  0  0  0  0  0  0  0  0  0  0
  -14.3843  -40.2725   -9.9727 C   0  0  0  0  0  0  0  0  0  0  0  0
  -14.8078  -41.4520   -9.9749 O   0  0  0  0  0  0  0  0  0  0  0  0
  -14.3081  -39.5342   -8.7083 C   0  0  2  0  0  0  0  0  0  0  0  0
  -12.9926  -39.8080   -8.0276 C   0  0  0  0  0  0  0  0  0  0  0  0
  -15.4984  -39.8219   -7.8050 C   0  0  0  0  0  0  0  0  0  0  0  0
  -16.7958  -39.5203   -8.4647 C   0  0  2  0  0  0  0  0  0  0  0  0
  -16.9300  -38.1104   -8.6398 O   0  0  0  0  0  0  0  0  0  0  0  0
  -18.0138  -39.9212   -7.6190 C   0  0  2  0  0  0  0  0  0  0  0  0
  -18.5857  -38.6753   -6.9594 C   0  0  0  0  0  0  0  0  0  0  0  0
  -19.6914  -38.0250   -7.7150 C   0  0  2  0  0  0  0  0  0  0  0  0
  -19.5493  -36.5009   -7.5706 C   0  0  0  0  0  0  0  0  0  0  0  0
  -21.0319  -38.3651   -7.0673 C   0  0  0  0  0  0  0  0  0  0  0  0
  -21.5306  -39.6125   -7.7906 C   0  0  0  0  0  0  0  0  0  0  0  0
  -22.9885  -39.7736   -7.4508 C   0  0  0  0  0  0  0  0  0  0  0  0
  -23.0616  -40.4924   -6.1131 C   0  0  0  0  0  0  0  0  0  0  0  0
  -22.7958  -41.9699   -6.3392 C   0  0  0  0  0  0  0  0  0  0  0  0
  -22.5331  -42.6455   -5.0555 C   0  0  0  0  0  0  0  0  0  0  0  0
  -22.2650  -44.1065   -5.1180 C   0  0  0  0  0  0  0  0  0  0  0  0
  -21.9374  -44.6976   -6.4336 C   0  0  2  0  0  0  0  0  0  0  0  0
  -21.8177  -46.1358   -6.3093 N   0  0  0  0  0  0  0  0  0  0  0  0
  -21.5812  -47.0534   -7.3476 C   0  0  0  0  0  0  0  0  0  0  0  0
  -22.4279  -47.4066   -8.1922 O   0  0  0  0  0  0  0  0  0  0  0  0
  -20.3104  -47.6529   -7.4993 O   0  0  0  0  0  0  0  0  0  0  0  0
  -20.2507  -49.0566   -7.6121 C   0  0  0  0  0  0  0  0  0  0  0  0
  -19.1370  -49.6800   -6.8056 C   0  0  0  0  0  0  0  0  0  0  0  0
  -20.2540  -49.5260   -9.0322 C   0  0  0  0  0  0  0  0  0  0  0  0
  -21.5525  -49.5914   -6.9610 C   0  0  0  0  0  0  0  0  0  0  0  0
  -20.8428  -44.1826   -7.2278 C   0  0  0  0  0  0  0  0  0  0  0  0
  -21.0976  -44.1595   -8.5018 O   0  0  0  0  0  0  0  0  0  0  0  0
  -19.5681  -43.7135   -6.8808 N   0  0  0  0  0  0  0  0  0  0  0  0
  -19.1622  -42.6858   -5.9586 C   0  0  1  0  0  0  0  0  0  0  0  0
  -18.9256  -43.3972   -4.6172 C   0  0  0  0  0  0  0  0  0  0  0  0
  -17.8091  -42.1234   -6.3128 C   0  0  0  0  0  0  0  0  0  0  0  0
  -16.8951  -43.0057   -6.3628 O   0  0  0  0  0  0  0  0  0  0  0  0
  -17.4811  -40.8102   -6.5758 N   0  0  0  0  0  0  0  0  0  0  0  0
  1  2  1  0
  2  3  1  0
  3  4  1  0
  4  5  1  0
  5  6  1  0
  6  7  2  0
  6  8  1  0
  8  9  1  1
  8 10  1  0
 10 11  1  0
 11 12  1  1
 11 13  1  0
 13 14  1  1
 14 15  1  0
 15 16  1  1
 15 17  1  0
 17 18  1  0
 18 19  1  0
 19 20  1  0
 20 21  1  0
 21 22  1  0
 22 23  1  0
 23 24  1  0
 24 25  1  1
 25 26  1  0
 26 27  2  0
 26 28  1  0
 28 29  1  0
 29 30  1  0
 29 31  1  0
 29 32  1  0
 24 33  1  0
 33 34  2  0
 33 35  1  0
 35 36  1  0
 36 37  1  1
 36 38  1  0
 38 39  2  0
 38 40  1  0
 40 13  1  0
M  END
$$$$
