
     RDKit          3D

 40 40  0  0  0  0  0  0  0  0999 V2000
  -12.4831  -35.8269  -12.8681 C   0  0  0  0  0  0  0  0  0  0  0  0
  -12.3070  -37.0306  -13.8019 C   0  0  0  0  0  0  0  0  0  0  0  0
  -12.9432  -38.2313  -13.1677 C   0  0  0  0  0  0  0  0  0  0  0  0
  -12.3242  -38.6348  -11.8775 C   0  0  0  0  0  0  0  0  0  0  0  0
  -13.1736  -38.4418  -10.7144 N   0  0  0  0  0  0  0  0  0  0  0  0
  -13.9165  -39.5235  -10.1832 C   0  0  0  0  0  0  0  0  0  0  0  0
  -14.3237  -40.4046  -10.9760 O   0  0  0  0  0  0  0  0  0  0  0  0
  -14.2196  -39.6418   -8.7536 C   0  0  2  0  0  0  0  0  0  0  0  0
  -12.9666  -39.9690   -7.9842 C   0  0  0  0  0  0  0  0  0  0  0  0
  -15.3396  -40.6368   -8.4864 C   0  0  0  0  0  0  0  0  0  0  0  0
  -16.5911  -40.2879   -9.2086 C   0  0  2  0  0  0  0  0  0  0  0  0
  -16.5175  -38.9413   -9.6753 O   0  0  0  0  0  0  0  0  0  0  0  0
  -17.8373  -40.3170   -8.3110 C   0  0  2  0  0  0  0  0  0  0  0  0
  -18.2901  -38.8879   -8.0523 C   0  0  0  0  0  0  0  0  0  0  0  0
  -19.3347  -38.3887   -8.9884 C   0  0  2  0  0  0  0  0  0  0  0  0
  -19.0532  -36.9070   -9.2869 C   0  0  0  0  0  0  0  0  0  0  0  0
  -20.6981  -38.4064   -8.3007 C   0  0  0  0  0  0  0  0  0  0  0  0
  -21.3117  -39.7604   -8.6442 C   0  0  0  0  0  0  0  0  0  0  0  0
  -22.7769  -39.6862   -8.3057 C   0  0  0  0  0  0  0  0  0  0  0  0
  -22.9102  -39.9775   -6.8194 C   0  0  0  0  0  0  0  0  0  0  0  0
  -22.7816  -41.4746   -6.6033 C   0  0  0  0  0  0  0  0  0  0  0  0
  -22.5768  -41.7702   -5.1736 C   0  0  0  0  0  0  0  0  0  0  0  0
  -22.4437  -43.2045   -4.8056 C   0  0  0  0  0  0  0  0  0  0  0  0
  -22.1768  -44.1778   -5.8868 C   0  0  2  0  0  0  0  0  0  0  0  0
  -22.1888  -45.5231   -5.3500 N   0  0  0  0  0  0  0  0  0  0  0  0
  -21.7271  -46.6877   -5.9877 C   0  0  0  0  0  0  0  0  0  0  0  0
  -20.9848  -47.5407   -5.4620 O   0  0  0  0  0  0  0  0  0  0  0  0
  -22.0979  -46.9697   -7.3220 O   0  0  0  0  0  0  0  0  0  0  0  0
  -21.8384  -48.2619   -7.8214 C   0  0  0  0  0  0  0  0  0  0  0  0
  -22.0280  -49.3543   -6.7967 C   0  0  0  0  0  0  0  0  0  0  0  0
  -20.5189  -48.3612   -8.5187 C   0  0  0  0  0  0  0  0  0  0  0  0
  -22.9301  -48.5326   -8.8890 C   0  0  0  0  0  0  0  0  0  0  0  0
  -21.0429  -44.0141   -6.7708 C   0  0  0  0  0  0  0  0  0  0  0  0
  -21.2995  -44.3383   -8.0027 O   0  0  0  0  0  0  0  0  0  0  0  0
  -19.7292  -43.5796   -6.5451 N   0  0  0  0  0  0  0  0  0  0  0  0
  -19.2273  -42.3692   -5.9499 C   0  0  1  0  0  0  0  0  0  0  0  0
  -19.0515  -42.6798   -4.4551 C   0  0  0  0  0  0  0  0  0  0  0  0
  -17.8298  -42.0559   -6.4205 C   0  0  0  0  0  0  0  0  0  0  0  0
  -17.0005  -42.9922   -6.1929 O   0  0  0  0  0  0  0  0  0  0  0  0
  -17.3840  -40.9095   -7.0438 N   0  0  0  0  0  0  0  0  0  0  0  0
  1  2  1  0
  2  3  1  0
  3  4  1  0
  4  5  1  0
  5  6  1  0
  6  7  2  0
  6  8  1  0
  8  9  1  1
  8 10  1  0
 10 11  1  0
 11 12  1  1
 11 13  1  0
 13 14  1  1
 14 15  1  0
 15 16  1  1
 15 17  1  0
 17 18  1  0
 18 19  1  0
 19 20  1  0
 20 21  1  0
 21 22  1  0
 22 23  1  0
 23 24  1  0
 24 25  1  1
 25 26  1  0
 26 27  2  0
 26 28  1  0
 28 29  1  0
 29 30  1  0
 29 31  1  0
 29 32  1  0
 24 33  1  0
 33 34  2  0
 33 35  1  0
 35 36  1  0
 36 37  1  1
 36 38  1  0
 38 39  2  0
 38 40  1  0
 40 13  1  0
M  END
$$$$
