
     RDKit          3D

 40 40  0  0  0  0  0  0  0  0999 V2000
  -11.1318  -40.8266  -14.2839 C   0  0  0  0  0  0  0  0  0  0  0  0
  -11.5040  -39.3390  -14.2626 C   0  0  0  0  0  0  0  0  0  0  0  0
  -12.8936  -39.1962  -13.7178 C   0  0  0  0  0  0  0  0  0  0  0  0
  -13.0873  -39.8173  -12.3809 C   0  0  0  0  0  0  0  0  0  0  0  0
  -14.4434  -39.7306  -11.8661 N   0  0  0  0  0  0  0  0  0  0  0  0
  -14.7536  -40.2313  -10.5786 C   0  0  0  0  0  0  0  0  0  0  0  0
  -14.4407  -41.4160  -10.3158 O   0  0  0  0  0  0  0  0  0  0  0  0
  -15.4207  -39.4165   -9.5584 C   0  0  2  0  0  0  0  0  0  0  0  0
  -14.4309  -38.9947   -8.5042 C   0  0  0  0  0  0  0  0  0  0  0  0
  -16.6327  -40.1208   -8.9661 C   0  0  0  0  0  0  0  0  0  0  0  0
  -17.4704  -39.2100   -8.1426 C   0  0  2  0  0  0  0  0  0  0  0  0
  -16.6504  -38.5279   -7.1947 O   0  0  0  0  0  0  0  0  0  0  0  0
  -18.5120  -39.9496   -7.2896 C   0  0  2  0  0  0  0  0  0  0  0  0
  -18.9776  -39.0269   -6.1732 C   0  0  0  0  0  0  0  0  0  0  0  0
  -20.2105  -38.2517   -6.4825 C   0  0  2  0  0  0  0  0  0  0  0  0
  -20.0698  -36.8484   -5.8700 C   0  0  0  0  0  0  0  0  0  0  0  0
  -21.4087  -38.8793   -5.7737 C   0  0  0  0  0  0  0  0  0  0  0  0
  -22.0077  -39.8618   -6.7756 C   0  0  0  0  0  0  0  0  0  0  0  0
  -23.3792  -40.2302   -6.2753 C   0  0  0  0  0  0  0  0  0  0  0  0
  -23.2016  -41.3436   -5.2553 C   0  0  0  0  0  0  0  0  0  0  0  0
  -22.9563  -42.6466   -5.9947 C   0  0  0  0  0  0  0  0  0  0  0  0
  -22.4586  -43.6772   -5.0654 C   0  0  0  0  0  0  0  0  0  0  0  0
  -22.1821  -45.0169   -5.6476 C   0  0  0  0  0  0  0  0  0  0  0  0
  -22.0841  -45.1288   -7.1192 C   0  0  2  0  0  0  0  0  0  0  0  0
  -21.9209  -46.5179   -7.4959 N   0  0  0  0  0  0  0  0  0  0  0  0
  -21.0367  -47.0295   -8.4615 C   0  0  0  0  0  0  0  0  0  0  0  0
  -20.8778  -46.5553   -9.6038 O   0  0  0  0  0  0  0  0  0  0  0  0
  -20.2407  -48.1621   -8.1766 O   0  0  0  0  0  0  0  0  0  0  0  0
  -18.8441  -48.0427   -8.3236 C   0  0  0  0  0  0  0  0  0  0  0  0
  -18.3818  -48.0945   -9.7599 C   0  0  0  0  0  0  0  0  0  0  0  0
  -18.0847  -48.9889   -7.4489 C   0  0  0  0  0  0  0  0  0  0  0  0
  -18.4873  -46.6102   -7.8488 C   0  0  0  0  0  0  0  0  0  0  0  0
  -21.1567  -44.3071   -7.8667 C   0  0  0  0  0  0  0  0  0  0  0  0
  -21.6343  -43.8952   -9.0028 O   0  0  0  0  0  0  0  0  0  0  0  0
  -19.8484  -43.8817   -7.5970 N   0  0  0  0  0  0  0  0  0  0  0  0
  -19.3017  -43.1774   -6.4673 C   0  0  1  0  0  0  0  0  0  0  0  0
  -18.8189  -44.2622   -5.4918 C   0  0  0  0  0  0  0  0  0  0  0  0
  -18.0425  -42.4331   -6.8320 C   0  0  0  0  0  0  0  0  0  0  0  0
  -17.1377  -43.1829   -7.3172 O   0  0  0  0  0  0  0  0  0  0  0  0
  -17.7879  -41.0845   -6.6982 N   0  0  0  0  0  0  0  0  0  0  0  0
  1  2  1  0
  2  3  1  0
  3  4  1  0
  4  5  1  0
  5  6  1  0
  6  7  2  0
  6  8  1  0
  8  9  1  1
  8 10  1  0
 10 11  1  0
 11 12  1  1
 11 13  1  0
 13 14  1  1
 14 15  1  0
 15 16  1  1
 15 17  1  0
 17 18  1  0
 18 19  1  0
 19 20  1  0
 20 21  1  0
 21 22  1  0
 22 23  1  0
 23 24  1  0
 24 25  1  1
 25 26  1  0
 26 27  2  0
 26 28  1  0
 28 29  1  0
 29 30  1  0
 29 31  1  0
 29 32  1  0
 24 33  1  0
 33 34  2  0
 33 35  1  0
 35 36  1  0
 36 37  1  1
 36 38  1  0
 38 39  2  0
 38 40  1  0
 40 13  1  0
M  END
$$$$
