
     RDKit          3D

 40 40  0  0  0  0  0  0  0  0999 V2000
  -12.4854  -36.1228  -15.0507 C   0  0  0  0  0  0  0  0  0  0  0  0
  -13.4476  -35.5421  -14.0072 C   0  0  0  0  0  0  0  0  0  0  0  0
  -13.3686  -36.3730  -12.7615 C   0  0  0  0  0  0  0  0  0  0  0  0
  -14.4477  -37.3886  -12.6409 C   0  0  0  0  0  0  0  0  0  0  0  0
  -14.4428  -38.1285  -11.3903 N   0  0  0  0  0  0  0  0  0  0  0  0
  -15.1848  -39.3278  -11.2652 C   0  0  0  0  0  0  0  0  0  0  0  0
  -16.1604  -39.5000  -12.0329 O   0  0  0  0  0  0  0  0  0  0  0  0
  -14.8507  -40.3593  -10.2783 C   0  0  2  0  0  0  0  0  0  0  0  0
  -14.9959  -41.7279  -10.8907 C   0  0  0  0  0  0  0  0  0  0  0  0
  -15.6588  -40.2092   -8.9977 C   0  0  0  0  0  0  0  0  0  0  0  0
  -16.9497  -39.5073   -9.2218 C   0  0  2  0  0  0  0  0  0  0  0  0
  -16.8208  -38.1344   -8.8544 O   0  0  0  0  0  0  0  0  0  0  0  0
  -18.0893  -40.0372   -8.3386 C   0  0  2  0  0  0  0  0  0  0  0  0
  -18.7288  -38.8667   -7.6068 C   0  0  0  0  0  0  0  0  0  0  0  0
  -19.9186  -38.2849   -8.2868 C   0  0  2  0  0  0  0  0  0  0  0  0
  -19.8945  -36.7602   -8.0905 C   0  0  0  0  0  0  0  0  0  0  0  0
  -21.1945  -38.7576   -7.5935 C   0  0  0  0  0  0  0  0  0  0  0  0
  -21.6237  -40.0165   -8.3411 C   0  0  0  0  0  0  0  0  0  0  0  0
  -23.0459  -40.3099   -7.9431 C   0  0  0  0  0  0  0  0  0  0  0  0
  -22.9963  -41.0781   -6.6320 C   0  0  0  0  0  0  0  0  0  0  0  0
  -22.6220  -42.5197   -6.9263 C   0  0  0  0  0  0  0  0  0  0  0  0
  -22.2443  -43.2150   -5.6824 C   0  0  0  0  0  0  0  0  0  0  0  0
  -21.8613  -44.6456   -5.8129 C   0  0  0  0  0  0  0  0  0  0  0  0
  -21.5495  -45.1616   -7.1635 C   0  0  2  0  0  0  0  0  0  0  0  0
  -21.3072  -46.5883   -7.0999 N   0  0  0  0  0  0  0  0  0  0  0  0
  -21.3384  -47.3966   -5.9503 C   0  0  0  0  0  0  0  0  0  0  0  0
  -20.5661  -48.3504   -5.7294 O   0  0  0  0  0  0  0  0  0  0  0  0
  -22.2907  -47.1604   -4.9331 O   0  0  0  0  0  0  0  0  0  0  0  0
  -22.7941  -48.2719   -4.2275 C   0  0  0  0  0  0  0  0  0  0  0  0
  -22.9516  -48.0256   -2.7463 C   0  0  0  0  0  0  0  0  0  0  0  0
  -22.0424  -49.5324   -4.5162 C   0  0  0  0  0  0  0  0  0  0  0  0
  -24.2403  -48.4849   -4.7451 C   0  0  0  0  0  0  0  0  0  0  0  0
  -20.5397  -44.5302   -7.9854 C   0  0  0  0  0  0  0  0  0  0  0  0
  -20.8559  -44.4843   -9.2449 O   0  0  0  0  0  0  0  0  0  0  0  0
  -19.2924  -43.9689   -7.6779 N   0  0  0  0  0  0  0  0  0  0  0  0
  -18.9281  -42.9435   -6.7360 C   0  0  1  0  0  0  0  0  0  0  0  0
  -18.5707  -43.6787   -5.4347 C   0  0  0  0  0  0  0  0  0  0  0  0
  -17.6438  -42.2586   -7.1283 C   0  0  0  0  0  0  0  0  0  0  0  0
  -16.6643  -43.0594   -7.2528 O   0  0  0  0  0  0  0  0  0  0  0  0
  -17.4368  -40.9143   -7.3551 N   0  0  0  0  0  0  0  0  0  0  0  0
  1  2  1  0
  2  3  1  0
  3  4  1  0
  4  5  1  0
  5  6  1  0
  6  7  2  0
  6  8  1  0
  8  9  1  6
  8 10  1  0
 10 11  1  0
 11 12  1  1
 11 13  1  0
 13 14  1  1
 14 15  1  0
 15 16  1  1
 15 17  1  0
 17 18  1  0
 18 19  1  0
 19 20  1  0
 20 21  1  0
 21 22  1  0
 22 23  1  0
 23 24  1  0
 24 25  1  1
 25 26  1  0
 26 27  2  0
 26 28  1  0
 28 29  1  0
 29 30  1  0
 29 31  1  0
 29 32  1  0
 24 33  1  0
 33 34  2  0
 33 35  1  0
 35 36  1  0
 36 37  1  1
 36 38  1  0
 38 39  2  0
 38 40  1  0
 40 13  1  0
M  END
$$$$
