
     RDKit          3D

 40 40  0  0  0  0  0  0  0  0999 V2000
  -12.3696  -34.3809  -10.5833 C   0  0  0  0  0  0  0  0  0  0  0  0
  -11.7462  -35.7806  -10.5191 C   0  0  0  0  0  0  0  0  0  0  0  0
  -12.8133  -36.7979  -10.7921 C   0  0  0  0  0  0  0  0  0  0  0  0
  -12.3770  -38.2042  -10.5861 C   0  0  0  0  0  0  0  0  0  0  0  0
  -13.3741  -39.2024  -10.9339 N   0  0  0  0  0  0  0  0  0  0  0  0
  -14.4548  -39.4697  -10.0593 C   0  0  0  0  0  0  0  0  0  0  0  0
  -15.5746  -38.9817  -10.3397 O   0  0  0  0  0  0  0  0  0  0  0  0
  -14.3050  -40.2887   -8.8524 C   0  0  2  0  0  0  0  0  0  0  0  0
  -13.3539  -41.4270   -9.1141 C   0  0  0  0  0  0  0  0  0  0  0  0
  -15.6461  -40.7664   -8.3149 C   0  0  0  0  0  0  0  0  0  0  0  0
  -16.3401  -39.7227   -7.5159 C   0  0  2  0  0  0  0  0  0  0  0  0
  -15.7053  -39.5886   -6.2449 O   0  0  0  0  0  0  0  0  0  0  0  0
  -17.7961  -40.0818   -7.1834 C   0  0  2  0  0  0  0  0  0  0  0  0
  -18.5564  -38.8039   -6.8621 C   0  0  0  0  0  0  0  0  0  0  0  0
  -19.2758  -38.2023   -8.0184 C   0  0  2  0  0  0  0  0  0  0  0  0
  -19.1744  -36.6718   -7.9123 C   0  0  0  0  0  0  0  0  0  0  0  0
  -20.7678  -38.5124   -7.9187 C   0  0  0  0  0  0  0  0  0  0  0  0
  -20.9713  -39.8008   -8.7103 C   0  0  0  0  0  0  0  0  0  0  0  0
  -22.4504  -39.9499   -8.9491 C   0  0  0  0  0  0  0  0  0  0  0  0
  -23.0440  -40.5932   -7.7059 C   0  0  0  0  0  0  0  0  0  0  0  0
  -22.7367  -42.0797   -7.7330 C   0  0  0  0  0  0  0  0  0  0  0  0
  -22.9988  -42.6811   -6.4128 C   0  0  0  0  0  0  0  0  0  0  0  0
  -22.7519  -44.1420   -6.2892 C   0  0  0  0  0  0  0  0  0  0  0  0
  -21.9540  -44.8041   -7.3440 C   0  0  2  0  0  0  0  0  0  0  0  0
  -21.9155  -46.2324   -7.1064 N   0  0  0  0  0  0  0  0  0  0  0  0
  -22.0106  -46.8815   -5.8632 C   0  0  0  0  0  0  0  0  0  0  0  0
  -23.0277  -46.8925   -5.1417 O   0  0  0  0  0  0  0  0  0  0  0  0
  -20.9071  -47.5920   -5.3388 O   0  0  0  0  0  0  0  0  0  0  0  0
  -21.0721  -48.2529   -4.1049 C   0  0  0  0  0  0  0  0  0  0  0  0
  -22.1172  -49.3420   -4.1387 C   0  0  0  0  0  0  0  0  0  0  0  0
  -21.2735  -47.3089   -2.9624 C   0  0  0  0  0  0  0  0  0  0  0  0
  -19.7383  -48.9981   -3.8398 C   0  0  0  0  0  0  0  0  0  0  0  0
  -20.6298  -44.3288   -7.6826 C   0  0  0  0  0  0  0  0  0  0  0  0
  -20.3751  -44.3782   -8.9559 O   0  0  0  0  0  0  0  0  0  0  0  0
  -19.5785  -43.8347   -6.8978 N   0  0  0  0  0  0  0  0  0  0  0  0
  -19.5407  -42.7550   -5.9469 C   0  0  1  0  0  0  0  0  0  0  0  0
  -19.8497  -43.3891   -4.5816 C   0  0  0  0  0  0  0  0  0  0  0  0
  -18.1460  -42.2065   -5.7831 C   0  0  0  0  0  0  0  0  0  0  0  0
  -17.2980  -43.0856   -5.4305 O   0  0  0  0  0  0  0  0  0  0  0  0
  -17.7201  -40.9084   -5.9696 N   0  0  0  0  0  0  0  0  0  0  0  0
  1  2  1  0
  2  3  1  0
  3  4  1  0
  4  5  1  0
  5  6  1  0
  6  7  2  0
  6  8  1  0
  8  9  1  6
  8 10  1  0
 10 11  1  0
 11 12  1  1
 11 13  1  0
 13 14  1  1
 14 15  1  0
 15 16  1  1
 15 17  1  0
 17 18  1  0
 18 19  1  0
 19 20  1  0
 20 21  1  0
 21 22  1  0
 22 23  1  0
 23 24  1  0
 24 25  1  1
 25 26  1  0
 26 27  2  0
 26 28  1  0
 28 29  1  0
 29 30  1  0
 29 31  1  0
 29 32  1  0
 24 33  1  0
 33 34  2  0
 33 35  1  0
 35 36  1  0
 36 37  1  1
 36 38  1  0
 38 39  2  0
 38 40  1  0
 40 13  1  0
M  END
$$$$
