
     RDKit          3D

 40 40  0  0  0  0  0  0  0  0999 V2000
   -9.7470  -43.5364   -9.9991 C   0  0  0  0  0  0  0  0  0  0  0  0
  -10.4825  -43.8864   -8.6997 C   0  0  0  0  0  0  0  0  0  0  0  0
  -11.9545  -43.6939   -8.9107 C   0  0  0  0  0  0  0  0  0  0  0  0
  -12.3205  -42.3550   -9.4436 C   0  0  0  0  0  0  0  0  0  0  0  0
  -13.4448  -41.7252   -8.7724 N   0  0  0  0  0  0  0  0  0  0  0  0
  -13.9375  -40.4758   -9.2204 C   0  0  0  0  0  0  0  0  0  0  0  0
  -13.2391  -39.4567   -9.0092 O   0  0  0  0  0  0  0  0  0  0  0  0
  -15.2221  -40.3405   -9.9141 C   0  0  2  0  0  0  0  0  0  0  0  0
  -15.0048  -39.8105  -11.3072 C   0  0  0  0  0  0  0  0  0  0  0  0
  -16.2140  -39.5003   -9.1229 C   0  0  0  0  0  0  0  0  0  0  0  0
  -17.6245  -39.8034   -9.4805 C   0  0  2  0  0  0  0  0  0  0  0  0
  -18.1859  -38.7043  -10.1970 O   0  0  0  0  0  0  0  0  0  0  0  0
  -18.5374  -39.9721   -8.2567 C   0  0  2  0  0  0  0  0  0  0  0  0
  -18.8244  -38.6003   -7.6648 C   0  0  0  0  0  0  0  0  0  0  0  0
  -20.0809  -37.9658   -8.1494 C   0  0  2  0  0  0  0  0  0  0  0  0
  -19.8370  -36.4552   -8.3001 C   0  0  0  0  0  0  0  0  0  0  0  0
  -21.1688  -38.0912   -7.0850 C   0  0  0  0  0  0  0  0  0  0  0  0
  -21.9188  -39.3779   -7.4167 C   0  0  0  0  0  0  0  0  0  0  0  0
  -23.2059  -39.3592   -6.6356 C   0  0  0  0  0  0  0  0  0  0  0  0
  -22.8923  -39.8749   -5.2401 C   0  0  0  0  0  0  0  0  0  0  0  0
  -22.7720  -41.3873   -5.2956 C   0  0  0  0  0  0  0  0  0  0  0  0
  -22.1543  -41.8978   -4.0582 C   0  0  0  0  0  0  0  0  0  0  0  0
  -21.9806  -43.3713   -3.9631 C   0  0  0  0  0  0  0  0  0  0  0  0
  -22.1007  -44.1671   -5.2041 C   0  0  2  0  0  0  0  0  0  0  0  0
  -22.0093  -45.5787   -4.8925 N   0  0  0  0  0  0  0  0  0  0  0  0
  -21.4791  -46.5890   -5.7136 C   0  0  0  0  0  0  0  0  0  0  0  0
  -20.3068  -46.6198   -6.1377 O   0  0  0  0  0  0  0  0  0  0  0  0
  -22.2832  -47.6774   -6.1215 O   0  0  0  0  0  0  0  0  0  0  0  0
  -21.9826  -48.2973   -7.3511 C   0  0  0  0  0  0  0  0  0  0  0  0
  -22.7011  -47.6831   -8.5283 C   0  0  0  0  0  0  0  0  0  0  0  0
  -22.1371  -49.7843   -7.3052 C   0  0  0  0  0  0  0  0  0  0  0  0
  -20.4816  -48.0115   -7.6159 C   0  0  0  0  0  0  0  0  0  0  0  0
  -21.2844  -43.8677   -6.3608 C   0  0  0  0  0  0  0  0  0  0  0  0
  -21.9191  -43.9999   -7.4869 O   0  0  0  0  0  0  0  0  0  0  0  0
  -19.9462  -43.4703   -6.4904 N   0  0  0  0  0  0  0  0  0  0  0  0
  -19.2322  -42.3643   -5.9087 C   0  0  1  0  0  0  0  0  0  0  0  0
  -18.6230  -42.8998   -4.6035 C   0  0  0  0  0  0  0  0  0  0  0  0
  -18.0323  -41.9798   -6.7364 C   0  0  0  0  0  0  0  0  0  0  0  0
  -17.2165  -42.9384   -6.9151 O   0  0  0  0  0  0  0  0  0  0  0  0
  -17.7465  -40.7507   -7.2921 N   0  0  0  0  0  0  0  0  0  0  0  0
  1  2  1  0
  2  3  1  0
  3  4  1  0
  4  5  1  0
  5  6  1  0
  6  7  2  0
  6  8  1  0
  8  9  1  6
  8 10  1  0
 10 11  1  0
 11 12  1  6
 11 13  1  0
 13 14  1  1
 14 15  1  0
 15 16  1  1
 15 17  1  0
 17 18  1  0
 18 19  1  0
 19 20  1  0
 20 21  1  0
 21 22  1  0
 22 23  1  0
 23 24  1  0
 24 25  1  1
 25 26  1  0
 26 27  2  0
 26 28  1  0
 28 29  1  0
 29 30  1  0
 29 31  1  0
 29 32  1  0
 24 33  1  0
 33 34  2  0
 33 35  1  0
 35 36  1  0
 36 37  1  1
 36 38  1  0
 38 39  2  0
 38 40  1  0
 40 13  1  0
M  END
$$$$
