
     RDKit          3D

 40 40  0  0  0  0  0  0  0  0999 V2000
  -16.4311  -34.5854  -11.1907 C   0  0  0  0  0  0  0  0  0  0  0  0
  -16.3575  -36.1168  -11.1507 C   0  0  0  0  0  0  0  0  0  0  0  0
  -15.5239  -36.5908  -12.3034 C   0  0  0  0  0  0  0  0  0  0  0  0
  -15.4328  -38.0704  -12.4176 C   0  0  0  0  0  0  0  0  0  0  0  0
  -14.6351  -38.7073  -11.3835 N   0  0  0  0  0  0  0  0  0  0  0  0
  -15.1998  -39.7113  -10.5604 C   0  0  0  0  0  0  0  0  0  0  0  0
  -16.2221  -40.3067  -10.9742 O   0  0  0  0  0  0  0  0  0  0  0  0
  -14.6324  -40.0701   -9.2569 C   0  0  2  0  0  0  0  0  0  0  0  0
  -13.5675  -41.1216   -9.4276 C   0  0  0  0  0  0  0  0  0  0  0  0
  -15.7048  -40.4883   -8.2615 C   0  0  0  0  0  0  0  0  0  0  0  0
  -16.6923  -39.4071   -8.0056 C   0  0  2  0  0  0  0  0  0  0  0  0
  -16.1446  -38.4633   -7.0860 O   0  0  0  0  0  0  0  0  0  0  0  0
  -17.9761  -39.9068   -7.3262 C   0  0  2  0  0  0  0  0  0  0  0  0
  -18.6764  -38.7263   -6.6702 C   0  0  0  0  0  0  0  0  0  0  0  0
  -19.7212  -38.0793   -7.5106 C   0  0  2  0  0  0  0  0  0  0  0  0
  -19.6688  -36.5616   -7.2698 C   0  0  0  0  0  0  0  0  0  0  0  0
  -21.1075  -38.5118   -7.0382 C   0  0  0  0  0  0  0  0  0  0  0  0
  -21.4628  -39.7345   -7.8789 C   0  0  0  0  0  0  0  0  0  0  0  0
  -22.9401  -39.9753   -7.7159 C   0  0  0  0  0  0  0  0  0  0  0  0
  -23.1268  -40.7734   -6.4353 C   0  0  0  0  0  0  0  0  0  0  0  0
  -22.7674  -42.2229   -6.7083 C   0  0  0  0  0  0  0  0  0  0  0  0
  -22.6169  -42.9608   -5.4410 C   0  0  0  0  0  0  0  0  0  0  0  0
  -22.2741  -44.4034   -5.5506 C   0  0  0  0  0  0  0  0  0  0  0  0
  -21.7747  -44.9026   -6.8503 C   0  0  2  0  0  0  0  0  0  0  0  0
  -21.6011  -46.3394   -6.7901 N   0  0  0  0  0  0  0  0  0  0  0  0
  -20.3909  -47.0344   -6.6218 C   0  0  0  0  0  0  0  0  0  0  0  0
  -19.9115  -47.3732   -5.5216 O   0  0  0  0  0  0  0  0  0  0  0  0
  -19.6154  -47.4061   -7.7433 O   0  0  0  0  0  0  0  0  0  0  0  0
  -18.2530  -47.7021   -7.5364 C   0  0  0  0  0  0  0  0  0  0  0  0
  -17.3174  -46.8306   -8.3392 C   0  0  0  0  0  0  0  0  0  0  0  0
  -17.9447  -49.1576   -7.6906 C   0  0  0  0  0  0  0  0  0  0  0  0
  -17.9578  -47.3364   -6.0586 C   0  0  0  0  0  0  0  0  0  0  0  0
  -20.6246  -44.2972   -7.4865 C   0  0  0  0  0  0  0  0  0  0  0  0
  -20.7372  -44.2103   -8.7781 O   0  0  0  0  0  0  0  0  0  0  0  0
  -19.4201  -43.7968   -6.9726 N   0  0  0  0  0  0  0  0  0  0  0  0
  -19.1685  -42.8088   -5.9568 C   0  0  1  0  0  0  0  0  0  0  0  0
  -19.0485  -43.5869   -4.6370 C   0  0  0  0  0  0  0  0  0  0  0  0
  -17.8127  -42.1712   -6.1247 C   0  0  0  0  0  0  0  0  0  0  0  0
  -16.8578  -43.0104   -6.1176 O   0  0  0  0  0  0  0  0  0  0  0  0
  -17.5206  -40.8324   -6.2783 N   0  0  0  0  0  0  0  0  0  0  0  0
  1  2  1  0
  2  3  1  0
  3  4  1  0
  4  5  1  0
  5  6  1  0
  6  7  2  0
  6  8  1  0
  8  9  1  6
  8 10  1  0
 10 11  1  0
 11 12  1  1
 11 13  1  0
 13 14  1  1
 14 15  1  0
 15 16  1  1
 15 17  1  0
 17 18  1  0
 18 19  1  0
 19 20  1  0
 20 21  1  0
 21 22  1  0
 22 23  1  0
 23 24  1  0
 24 25  1  1
 25 26  1  0
 26 27  2  0
 26 28  1  0
 28 29  1  0
 29 30  1  0
 29 31  1  0
 29 32  1  0
 24 33  1  0
 33 34  2  0
 33 35  1  0
 35 36  1  0
 36 37  1  1
 36 38  1  0
 38 39  2  0
 38 40  1  0
 40 13  1  0
M  END
$$$$
