
     RDKit          3D

 40 40  0  0  0  0  0  0  0  0999 V2000
  -12.6268  -43.6991  -12.6484 C   0  0  0  0  0  0  0  0  0  0  0  0
  -13.3392  -42.4591  -12.0943 C   0  0  0  0  0  0  0  0  0  0  0  0
  -12.3332  -41.5974  -11.3916 C   0  0  0  0  0  0  0  0  0  0  0  0
  -12.9092  -40.3735  -10.7745 C   0  0  0  0  0  0  0  0  0  0  0  0
  -14.3612  -40.3189  -10.7844 N   0  0  0  0  0  0  0  0  0  0  0  0
  -15.0894  -40.4131   -9.5739 C   0  0  0  0  0  0  0  0  0  0  0  0
  -16.0827  -41.1766   -9.5416 O   0  0  0  0  0  0  0  0  0  0  0  0
  -14.7212  -39.6548   -8.3742 C   0  0  2  0  0  0  0  0  0  0  0  0
  -13.6024  -40.3513   -7.6448 C   0  0  0  0  0  0  0  0  0  0  0  0
  -15.9201  -39.3874   -7.4760 C   0  0  0  0  0  0  0  0  0  0  0  0
  -17.1997  -39.3632   -8.2319 C   0  0  2  0  0  0  0  0  0  0  0  0
  -17.5397  -38.0164   -8.5590 O   0  0  0  0  0  0  0  0  0  0  0  0
  -18.3959  -39.8752   -7.4156 C   0  0  2  0  0  0  0  0  0  0  0  0
  -19.0973  -38.6875   -6.7738 C   0  0  0  0  0  0  0  0  0  0  0  0
  -20.2394  -38.1430   -7.5584 C   0  0  2  0  0  0  0  0  0  0  0  0
  -20.2432  -36.6122   -7.4147 C   0  0  0  0  0  0  0  0  0  0  0  0
  -21.5583  -38.6059   -6.9432 C   0  0  0  0  0  0  0  0  0  0  0  0
  -21.9208  -39.8946   -7.6752 C   0  0  0  0  0  0  0  0  0  0  0  0
  -23.3655  -40.1903   -7.3713 C   0  0  0  0  0  0  0  0  0  0  0  0
  -23.4049  -40.9122   -6.0338 C   0  0  0  0  0  0  0  0  0  0  0  0
  -22.9975  -42.3587   -6.2492 C   0  0  0  0  0  0  0  0  0  0  0  0
  -22.7053  -43.0064   -4.9575 C   0  0  0  0  0  0  0  0  0  0  0  0
  -22.3012  -44.4362   -5.0094 C   0  0  0  0  0  0  0  0  0  0  0  0
  -21.8873  -44.9949   -6.3149 C   0  0  2  0  0  0  0  0  0  0  0  0
  -21.6378  -46.4157   -6.1836 N   0  0  0  0  0  0  0  0  0  0  0  0
  -21.9740  -47.4181   -7.1099 C   0  0  0  0  0  0  0  0  0  0  0  0
  -21.6463  -48.6173   -7.0117 O   0  0  0  0  0  0  0  0  0  0  0  0
  -22.7394  -47.1074   -8.2567 O   0  0  0  0  0  0  0  0  0  0  0  0
  -22.4238  -47.7678   -9.4612 C   0  0  0  0  0  0  0  0  0  0  0  0
  -20.9658  -47.6678   -9.8402 C   0  0  0  0  0  0  0  0  0  0  0  0
  -23.3302  -47.3859  -10.5880 C   0  0  0  0  0  0  0  0  0  0  0  0
  -22.6559  -49.2773   -9.1922 C   0  0  0  0  0  0  0  0  0  0  0  0
  -20.8259  -44.3808   -7.0830 C   0  0  0  0  0  0  0  0  0  0  0  0
  -21.0498  -44.3820   -8.3630 O   0  0  0  0  0  0  0  0  0  0  0  0
  -19.6093  -43.7951   -6.7058 N   0  0  0  0  0  0  0  0  0  0  0  0
  -19.3237  -42.7338   -5.7767 C   0  0  1  0  0  0  0  0  0  0  0  0
  -19.0556  -43.4196   -4.4278 C   0  0  0  0  0  0  0  0  0  0  0  0
  -18.0202  -42.0483   -6.0987 C   0  0  0  0  0  0  0  0  0  0  0  0
  -17.0273  -42.8418   -6.1235 O   0  0  0  0  0  0  0  0  0  0  0  0
  -17.8092  -40.7104   -6.3571 N   0  0  0  0  0  0  0  0  0  0  0  0
  1  2  1  0
  2  3  1  0
  3  4  1  0
  4  5  1  0
  5  6  1  0
  6  7  2  0
  6  8  1  0
  8  9  1  1
  8 10  1  0
 10 11  1  0
 11 12  1  1
 11 13  1  0
 13 14  1  1
 14 15  1  0
 15 16  1  1
 15 17  1  0
 17 18  1  0
 18 19  1  0
 19 20  1  0
 20 21  1  0
 21 22  1  0
 22 23  1  0
 23 24  1  0
 24 25  1  1
 25 26  1  0
 26 27  2  0
 26 28  1  0
 28 29  1  0
 29 30  1  0
 29 31  1  0
 29 32  1  0
 24 33  1  0
 33 34  2  0
 33 35  1  0
 35 36  1  0
 36 37  1  1
 36 38  1  0
 38 39  2  0
 38 40  1  0
 40 13  1  0
M  END
$$$$
