
     RDKit          3D

 40 40  0  0  0  0  0  0  0  0999 V2000
  -12.1333  -36.0413  -13.8408 C   0  0  0  0  0  0  0  0  0  0  0  0
  -11.2339  -37.1185  -13.2224 C   0  0  0  0  0  0  0  0  0  0  0  0
  -11.8246  -37.5482  -11.9130 C   0  0  0  0  0  0  0  0  0  0  0  0
  -13.3110  -37.5800  -11.9000 C   0  0  0  0  0  0  0  0  0  0  0  0
  -13.8951  -37.9693  -10.6277 N   0  0  0  0  0  0  0  0  0  0  0  0
  -14.6371  -39.1701  -10.5182 C   0  0  0  0  0  0  0  0  0  0  0  0
  -15.4608  -39.4386  -11.4237 O   0  0  0  0  0  0  0  0  0  0  0  0
  -14.4728  -40.0955   -9.3928 C   0  0  2  0  0  0  0  0  0  0  0  0
  -13.3653  -41.0738   -9.6846 C   0  0  0  0  0  0  0  0  0  0  0  0
  -15.7770  -40.7893   -9.0275 C   0  0  0  0  0  0  0  0  0  0  0  0
  -16.9420  -39.8675   -9.0773 C   0  0  2  0  0  0  0  0  0  0  0  0
  -16.5052  -38.5278   -8.8514 O   0  0  0  0  0  0  0  0  0  0  0  0
  -17.9707  -40.1297   -7.9671 C   0  0  2  0  0  0  0  0  0  0  0  0
  -18.3025  -38.8119   -7.2833 C   0  0  0  0  0  0  0  0  0  0  0  0
  -19.5009  -38.1153   -7.8265 C   0  0  2  0  0  0  0  0  0  0  0  0
  -19.2312  -36.6017   -7.8153 C   0  0  0  0  0  0  0  0  0  0  0  0
  -20.6880  -38.3173   -6.8872 C   0  0  0  0  0  0  0  0  0  0  0  0
  -21.4126  -39.5562   -7.4047 C   0  0  0  0  0  0  0  0  0  0  0  0
  -22.7692  -39.5859   -6.7522 C   0  0  0  0  0  0  0  0  0  0  0  0
  -22.5968  -40.2298   -5.3857 C   0  0  0  0  0  0  0  0  0  0  0  0
  -22.4840  -41.7329   -5.5666 C   0  0  0  0  0  0  0  0  0  0  0  0
  -21.9935  -42.3626   -4.3271 C   0  0  0  0  0  0  0  0  0  0  0  0
  -21.8417  -43.8414   -4.3501 C   0  0  0  0  0  0  0  0  0  0  0  0
  -21.8474  -44.5207   -5.6640 C   0  0  2  0  0  0  0  0  0  0  0  0
  -21.7982  -45.9559   -5.4746 N   0  0  0  0  0  0  0  0  0  0  0  0
  -21.7091  -46.9346   -6.4796 C   0  0  0  0  0  0  0  0  0  0  0  0
  -21.9744  -48.1429   -6.3223 O   0  0  0  0  0  0  0  0  0  0  0  0
  -21.2958  -46.5861   -7.7855 O   0  0  0  0  0  0  0  0  0  0  0  0
  -20.9595  -47.6283   -8.6729 C   0  0  0  0  0  0  0  0  0  0  0  0
  -21.2603  -47.3111  -10.1179 C   0  0  0  0  0  0  0  0  0  0  0  0
  -21.5185  -48.9510   -8.2542 C   0  0  0  0  0  0  0  0  0  0  0  0
  -19.4152  -47.7561   -8.6132 C   0  0  0  0  0  0  0  0  0  0  0  0
  -20.9203  -44.1326   -6.7051 C   0  0  0  0  0  0  0  0  0  0  0  0
  -21.4438  -44.1527   -7.8942 O   0  0  0  0  0  0  0  0  0  0  0  0
  -19.5727  -43.7479   -6.6691 N   0  0  0  0  0  0  0  0  0  0  0  0
  -18.9095  -42.7107   -5.9236 C   0  0  1  0  0  0  0  0  0  0  0  0
  -18.4342  -43.3712   -4.6200 C   0  0  0  0  0  0  0  0  0  0  0  0
  -17.6318  -42.2739   -6.5940 C   0  0  0  0  0  0  0  0  0  0  0  0
  -16.8104  -43.2262   -6.7801 O   0  0  0  0  0  0  0  0  0  0  0  0
  -17.2834  -41.0049   -7.0058 N   0  0  0  0  0  0  0  0  0  0  0  0
  1  2  1  0
  2  3  1  0
  3  4  1  0
  4  5  1  0
  5  6  1  0
  6  7  2  0
  6  8  1  0
  8  9  1  6
  8 10  1  0
 10 11  1  0
 11 12  1  1
 11 13  1  0
 13 14  1  1
 14 15  1  0
 15 16  1  1
 15 17  1  0
 17 18  1  0
 18 19  1  0
 19 20  1  0
 20 21  1  0
 21 22  1  0
 22 23  1  0
 23 24  1  0
 24 25  1  1
 25 26  1  0
 26 27  2  0
 26 28  1  0
 28 29  1  0
 29 30  1  0
 29 31  1  0
 29 32  1  0
 24 33  1  0
 33 34  2  0
 33 35  1  0
 35 36  1  0
 36 37  1  1
 36 38  1  0
 38 39  2  0
 38 40  1  0
 40 13  1  0
M  END
$$$$
