
     RDKit          3D

 40 40  0  0  0  0  0  0  0  0999 V2000
  -13.4357  -36.2082  -14.3884 C   0  0  0  0  0  0  0  0  0  0  0  0
  -13.4583  -37.5024  -13.5660 C   0  0  0  0  0  0  0  0  0  0  0  0
  -12.4922  -37.3684  -12.4272 C   0  0  0  0  0  0  0  0  0  0  0  0
  -12.5193  -38.5074  -11.4721 C   0  0  0  0  0  0  0  0  0  0  0  0
  -13.5139  -38.3886  -10.4194 N   0  0  0  0  0  0  0  0  0  0  0  0
  -14.2464  -39.5235   -9.9953 C   0  0  0  0  0  0  0  0  0  0  0  0
  -15.1062  -39.9954  -10.7756 O   0  0  0  0  0  0  0  0  0  0  0  0
  -14.0323  -40.1540   -8.6891 C   0  0  2  0  0  0  0  0  0  0  0  0
  -12.9227  -41.1686   -8.7797 C   0  0  0  0  0  0  0  0  0  0  0  0
  -15.3143  -40.7469   -8.1228 C   0  0  0  0  0  0  0  0  0  0  0  0
  -16.4820  -39.8446   -8.3003 C   0  0  2  0  0  0  0  0  0  0  0  0
  -16.1834  -38.5591   -7.7574 O   0  0  0  0  0  0  0  0  0  0  0  0
  -17.7285  -40.3075   -7.5311 C   0  0  2  0  0  0  0  0  0  0  0  0
  -18.2860  -39.1305   -6.7448 C   0  0  0  0  0  0  0  0  0  0  0  0
  -19.3582  -38.3696   -7.4433 C   0  0  2  0  0  0  0  0  0  0  0  0
  -19.1837  -36.8762   -7.1222 C   0  0  0  0  0  0  0  0  0  0  0  0
  -20.7211  -38.7464   -6.8663 C   0  0  0  0  0  0  0  0  0  0  0  0
  -21.2321  -39.8897   -7.7378 C   0  0  0  0  0  0  0  0  0  0  0  0
  -22.7009  -40.0505   -7.4485 C   0  0  0  0  0  0  0  0  0  0  0  0
  -22.8220  -40.9151   -6.2038 C   0  0  0  0  0  0  0  0  0  0  0  0
  -22.5858  -42.3635   -6.5923 C   0  0  0  0  0  0  0  0  0  0  0  0
  -22.3690  -43.1878   -5.3894 C   0  0  0  0  0  0  0  0  0  0  0  0
  -22.1340  -44.6386   -5.6136 C   0  0  0  0  0  0  0  0  0  0  0  0
  -21.7899  -45.0841   -6.9814 C   0  0  2  0  0  0  0  0  0  0  0  0
  -21.7071  -46.5297   -7.0203 N   0  0  0  0  0  0  0  0  0  0  0  0
  -22.5689  -47.4394   -6.3833 C   0  0  0  0  0  0  0  0  0  0  0  0
  -23.7996  -47.2840   -6.2552 O   0  0  0  0  0  0  0  0  0  0  0  0
  -22.0642  -48.6371   -5.8282 O   0  0  0  0  0  0  0  0  0  0  0  0
  -22.3309  -48.9000   -4.4694 C   0  0  0  0  0  0  0  0  0  0  0  0
  -23.5707  -48.2102   -3.9533 C   0  0  0  0  0  0  0  0  0  0  0  0
  -21.1444  -48.6676   -3.5888 C   0  0  0  0  0  0  0  0  0  0  0  0
  -22.6608  -50.4129   -4.3856 C   0  0  0  0  0  0  0  0  0  0  0  0
  -20.6654  -44.5106   -7.6888 C   0  0  0  0  0  0  0  0  0  0  0  0
  -20.8899  -44.3356   -8.9566 O   0  0  0  0  0  0  0  0  0  0  0  0
  -19.3884  -44.1175   -7.2644 N   0  0  0  0  0  0  0  0  0  0  0  0
  -18.9799  -43.2126   -6.2224 C   0  0  1  0  0  0  0  0  0  0  0  0
  -18.7914  -44.0784   -4.9668 C   0  0  0  0  0  0  0  0  0  0  0  0
  -17.6060  -42.6489   -6.4821 C   0  0  0  0  0  0  0  0  0  0  0  0
  -16.7121  -43.5432   -6.6142 O   0  0  0  0  0  0  0  0  0  0  0  0
  -17.2412  -41.3233   -6.5861 N   0  0  0  0  0  0  0  0  0  0  0  0
  1  2  1  0
  2  3  1  0
  3  4  1  0
  4  5  1  0
  5  6  1  0
  6  7  2  0
  6  8  1  0
  8  9  1  6
  8 10  1  0
 10 11  1  0
 11 12  1  1
 11 13  1  0
 13 14  1  1
 14 15  1  0
 15 16  1  1
 15 17  1  0
 17 18  1  0
 18 19  1  0
 19 20  1  0
 20 21  1  0
 21 22  1  0
 22 23  1  0
 23 24  1  0
 24 25  1  1
 25 26  1  0
 26 27  2  0
 26 28  1  0
 28 29  1  0
 29 30  1  0
 29 31  1  0
 29 32  1  0
 24 33  1  0
 33 34  2  0
 33 35  1  0
 35 36  1  0
 36 37  1  1
 36 38  1  0
 38 39  2  0
 38 40  1  0
 40 13  1  0
M  END
$$$$
