
     RDKit          3D

 40 40  0  0  0  0  0  0  0  0999 V2000
  -13.2120  -35.9513  -13.5285 C   0  0  0  0  0  0  0  0  0  0  0  0
  -12.9478  -37.3958  -13.9708 C   0  0  0  0  0  0  0  0  0  0  0  0
  -12.3227  -38.1434  -12.8312 C   0  0  0  0  0  0  0  0  0  0  0  0
  -13.0813  -39.3506  -12.4095 C   0  0  0  0  0  0  0  0  0  0  0  0
  -13.5201  -39.3341  -11.0244 N   0  0  0  0  0  0  0  0  0  0  0  0
  -14.4260  -40.3126  -10.5487 C   0  0  0  0  0  0  0  0  0  0  0  0
  -14.8185  -41.1919  -11.3509 O   0  0  0  0  0  0  0  0  0  0  0  0
  -14.9118  -40.3276   -9.1654 C   0  0  2  0  0  0  0  0  0  0  0  0
  -14.3524  -41.5192   -8.4333 C   0  0  0  0  0  0  0  0  0  0  0  0
  -16.4303  -40.2629   -9.0915 C   0  0  0  0  0  0  0  0  0  0  0  0
  -16.9069  -39.2515   -8.1119 C   0  0  2  0  0  0  0  0  0  0  0  0
  -15.9030  -39.0303   -7.1221 O   0  0  0  0  0  0  0  0  0  0  0  0
  -18.1379  -39.7109   -7.3164 C   0  0  2  0  0  0  0  0  0  0  0  0
  -18.5768  -38.5826   -6.3951 C   0  0  0  0  0  0  0  0  0  0  0  0
  -19.6336  -37.6976   -6.9575 C   0  0  2  0  0  0  0  0  0  0  0  0
  -19.3473  -36.2539   -6.5129 C   0  0  0  0  0  0  0  0  0  0  0  0
  -20.9853  -38.0463   -6.3383 C   0  0  0  0  0  0  0  0  0  0  0  0
  -21.6137  -39.0704   -7.2787 C   0  0  0  0  0  0  0  0  0  0  0  0
  -23.0724  -39.1712   -6.9197 C   0  0  0  0  0  0  0  0  0  0  0  0
  -23.1825  -40.1407   -5.7537 C   0  0  0  0  0  0  0  0  0  0  0  0
  -23.0603  -41.5574   -6.2854 C   0  0  0  0  0  0  0  0  0  0  0  0
  -22.8333  -42.5028   -5.1772 C   0  0  0  0  0  0  0  0  0  0  0  0
  -22.7037  -43.9373   -5.5456 C   0  0  0  0  0  0  0  0  0  0  0  0
  -22.4615  -44.2712   -6.9660 C   0  0  2  0  0  0  0  0  0  0  0  0
  -22.4734  -45.7091   -7.1409 N   0  0  0  0  0  0  0  0  0  0  0  0
  -21.4134  -46.5095   -7.6009 C   0  0  0  0  0  0  0  0  0  0  0  0
  -21.3716  -47.7530   -7.5165 O   0  0  0  0  0  0  0  0  0  0  0  0
  -20.2844  -45.9212   -8.2145 O   0  0  0  0  0  0  0  0  0  0  0  0
  -19.0074  -46.3335   -7.7832 C   0  0  0  0  0  0  0  0  0  0  0  0
  -18.1245  -45.1935   -7.3355 C   0  0  0  0  0  0  0  0  0  0  0  0
  -18.3229  -47.2286   -8.7667 C   0  0  0  0  0  0  0  0  0  0  0  0
  -19.2422  -47.1739   -6.5013 C   0  0  0  0  0  0  0  0  0  0  0  0
  -21.3416  -43.7006   -7.6830 C   0  0  0  0  0  0  0  0  0  0  0  0
  -21.6212  -43.3939   -8.9144 O   0  0  0  0  0  0  0  0  0  0  0  0
  -20.0215  -43.4249   -7.3001 N   0  0  0  0  0  0  0  0  0  0  0  0
  -19.5015  -42.6479   -6.2060 C   0  0  1  0  0  0  0  0  0  0  0  0
  -19.3026  -43.6378   -5.0474 C   0  0  0  0  0  0  0  0  0  0  0  0
  -18.1101  -42.1439   -6.4934 C   0  0  0  0  0  0  0  0  0  0  0  0
  -17.2834  -43.0727   -6.7584 O   0  0  0  0  0  0  0  0  0  0  0  0
  -17.6673  -40.8381   -6.4977 N   0  0  0  0  0  0  0  0  0  0  0  0
  1  2  1  0
  2  3  1  0
  3  4  1  0
  4  5  1  0
  5  6  1  0
  6  7  2  0
  6  8  1  0
  8  9  1  6
  8 10  1  0
 10 11  1  0
 11 12  1  1
 11 13  1  0
 13 14  1  1
 14 15  1  0
 15 16  1  1
 15 17  1  0
 17 18  1  0
 18 19  1  0
 19 20  1  0
 20 21  1  0
 21 22  1  0
 22 23  1  0
 23 24  1  0
 24 25  1  1
 25 26  1  0
 26 27  2  0
 26 28  1  0
 28 29  1  0
 29 30  1  0
 29 31  1  0
 29 32  1  0
 24 33  1  0
 33 34  2  0
 33 35  1  0
 35 36  1  0
 36 37  1  1
 36 38  1  0
 38 39  2  0
 38 40  1  0
 40 13  1  0
M  END
$$$$
