
     RDKit          3D

 40 40  0  0  0  0  0  0  0  0999 V2000
  -10.7646  -37.8284  -14.6265 C   0  0  0  0  0  0  0  0  0  0  0  0
  -12.1516  -38.4303  -14.3697 C   0  0  0  0  0  0  0  0  0  0  0  0
  -12.6148  -38.0125  -13.0061 C   0  0  0  0  0  0  0  0  0  0  0  0
  -13.9622  -38.5238  -12.6407 C   0  0  0  0  0  0  0  0  0  0  0  0
  -14.4170  -38.1337  -11.3169 N   0  0  0  0  0  0  0  0  0  0  0  0
  -14.3332  -39.0425  -10.2345 C   0  0  0  0  0  0  0  0  0  0  0  0
  -13.9145  -40.2004  -10.4683 O   0  0  0  0  0  0  0  0  0  0  0  0
  -14.7164  -38.6746   -8.8680 C   0  0  2  0  0  0  0  0  0  0  0  0
  -13.4998  -38.2571   -8.0839 C   0  0  0  0  0  0  0  0  0  0  0  0
  -15.4999  -39.7804   -8.1760 C   0  0  0  0  0  0  0  0  0  0  0  0
  -16.5502  -40.3633   -9.0516 C   0  0  2  0  0  0  0  0  0  0  0  0
  -16.7957  -39.4911  -10.1540 O   0  0  0  0  0  0  0  0  0  0  0  0
  -17.9131  -40.4984   -8.3562 C   0  0  2  0  0  0  0  0  0  0  0  0
  -18.5036  -39.1104   -8.1581 C   0  0  0  0  0  0  0  0  0  0  0  0
  -19.4269  -38.6687   -9.2392 C   0  0  2  0  0  0  0  0  0  0  0  0
  -19.2125  -37.1652   -9.4787 C   0  0  0  0  0  0  0  0  0  0  0  0
  -20.8743  -38.7967   -8.7690 C   0  0  0  0  0  0  0  0  0  0  0  0
  -21.3275  -40.1840   -9.2139 C   0  0  0  0  0  0  0  0  0  0  0  0
  -22.8286  -40.2207   -9.1035 C   0  0  0  0  0  0  0  0  0  0  0  0
  -23.1652  -40.5496   -7.6577 C   0  0  0  0  0  0  0  0  0  0  0  0
  -22.9617  -42.0377   -7.4369 C   0  0  0  0  0  0  0  0  0  0  0  0
  -22.9561  -42.3456   -5.9952 C   0  0  0  0  0  0  0  0  0  0  0  0
  -22.7760  -43.7737   -5.6231 C   0  0  0  0  0  0  0  0  0  0  0  0
  -22.2767  -44.7045   -6.6586 C   0  0  2  0  0  0  0  0  0  0  0  0
  -22.2718  -46.0573   -6.1411 N   0  0  0  0  0  0  0  0  0  0  0  0
  -22.7477  -46.4806   -4.8879 C   0  0  0  0  0  0  0  0  0  0  0  0
  -23.9254  -46.8134   -4.6489 O   0  0  0  0  0  0  0  0  0  0  0  0
  -21.8758  -46.5572   -3.7782 O   0  0  0  0  0  0  0  0  0  0  0  0
  -22.2295  -47.4151   -2.7174 C   0  0  0  0  0  0  0  0  0  0  0  0
  -21.0679  -47.7833   -1.8260 C   0  0  0  0  0  0  0  0  0  0  0  0
  -22.9982  -48.6149   -3.1719 C   0  0  0  0  0  0  0  0  0  0  0  0
  -23.1784  -46.5950   -1.8054 C   0  0  0  0  0  0  0  0  0  0  0  0
  -21.0364  -44.4433   -7.3567 C   0  0  0  0  0  0  0  0  0  0  0  0
  -21.0778  -44.7610   -8.6160 O   0  0  0  0  0  0  0  0  0  0  0  0
  -19.8079  -43.9210   -6.9285 N   0  0  0  0  0  0  0  0  0  0  0  0
  -19.4926  -42.6898   -6.2533 C   0  0  1  0  0  0  0  0  0  0  0  0
  -19.5244  -43.0160   -4.7519 C   0  0  0  0  0  0  0  0  0  0  0  0
  -18.0665  -42.2687   -6.5013 C   0  0  0  0  0  0  0  0  0  0  0  0
  -17.2153  -43.1480   -6.1569 O   0  0  0  0  0  0  0  0  0  0  0  0
  -17.6161  -41.0817   -7.0394 N   0  0  0  0  0  0  0  0  0  0  0  0
  1  2  1  0
  2  3  1  0
  3  4  1  0
  4  5  1  0
  5  6  1  0
  6  7  2  0
  6  8  1  0
  8  9  1  1
  8 10  1  0
 10 11  1  0
 11 12  1  6
 11 13  1  0
 13 14  1  1
 14 15  1  0
 15 16  1  1
 15 17  1  0
 17 18  1  0
 18 19  1  0
 19 20  1  0
 20 21  1  0
 21 22  1  0
 22 23  1  0
 23 24  1  0
 24 25  1  1
 25 26  1  0
 26 27  2  0
 26 28  1  0
 28 29  1  0
 29 30  1  0
 29 31  1  0
 29 32  1  0
 24 33  1  0
 33 34  2  0
 33 35  1  0
 35 36  1  0
 36 37  1  1
 36 38  1  0
 38 39  2  0
 38 40  1  0
 40 13  1  0
M  END
$$$$
