
     RDKit          3D

 40 40  0  0  0  0  0  0  0  0999 V2000
  -10.7717  -36.1408  -13.4916 C   0  0  0  0  0  0  0  0  0  0  0  0
  -12.0665  -35.9045  -12.7045 C   0  0  0  0  0  0  0  0  0  0  0  0
  -12.0877  -36.8255  -11.5213 C   0  0  0  0  0  0  0  0  0  0  0  0
  -13.2103  -37.8003  -11.5321 C   0  0  0  0  0  0  0  0  0  0  0  0
  -13.3659  -38.5549  -10.3001 N   0  0  0  0  0  0  0  0  0  0  0  0
  -14.5775  -39.2337  -10.0246 C   0  0  0  0  0  0  0  0  0  0  0  0
  -15.5291  -39.0904  -10.8275 O   0  0  0  0  0  0  0  0  0  0  0  0
  -14.7495  -40.0869   -8.8447 C   0  0  2  0  0  0  0  0  0  0  0  0
  -13.7807  -41.2393   -8.8937 C   0  0  0  0  0  0  0  0  0  0  0  0
  -16.1900  -40.5480   -8.6771 C   0  0  0  0  0  0  0  0  0  0  0  0
  -17.1087  -39.4268   -8.3481 C   0  0  2  0  0  0  0  0  0  0  0  0
  -16.4347  -38.4798   -7.5203 O   0  0  0  0  0  0  0  0  0  0  0  0
  -18.3268  -39.8638   -7.5206 C   0  0  2  0  0  0  0  0  0  0  0  0
  -18.8918  -38.6496   -6.7989 C   0  0  0  0  0  0  0  0  0  0  0  0
  -19.9962  -37.9579   -7.5190 C   0  0  2  0  0  0  0  0  0  0  0  0
  -19.8471  -36.4435   -7.2998 C   0  0  0  0  0  0  0  0  0  0  0  0
  -21.3369  -38.3239   -6.8860 C   0  0  0  0  0  0  0  0  0  0  0  0
  -21.8425  -39.5319   -7.6690 C   0  0  0  0  0  0  0  0  0  0  0  0
  -23.3004  -39.7033   -7.3344 C   0  0  0  0  0  0  0  0  0  0  0  0
  -23.3741  -40.4871   -6.0337 C   0  0  0  0  0  0  0  0  0  0  0  0
  -23.1152  -41.9527   -6.3331 C   0  0  0  0  0  0  0  0  0  0  0  0
  -22.8530  -42.6921   -5.0849 C   0  0  0  0  0  0  0  0  0  0  0  0
  -22.5914  -44.1493   -5.2202 C   0  0  0  0  0  0  0  0  0  0  0  0
  -22.2690  -44.6761   -6.5642 C   0  0  2  0  0  0  0  0  0  0  0  0
  -22.1554  -46.1191   -6.5114 N   0  0  0  0  0  0  0  0  0  0  0  0
  -21.1281  -46.9032   -7.0646 C   0  0  0  0  0  0  0  0  0  0  0  0
  -20.8250  -46.9292   -8.2740 O   0  0  0  0  0  0  0  0  0  0  0  0
  -20.3447  -47.7434   -6.2414 O   0  0  0  0  0  0  0  0  0  0  0  0
  -19.7333  -48.8665   -6.8343 C   0  0  0  0  0  0  0  0  0  0  0  0
  -18.2708  -49.0104   -6.4884 C   0  0  0  0  0  0  0  0  0  0  0  0
  -19.9788  -48.9517   -8.3073 C   0  0  0  0  0  0  0  0  0  0  0  0
  -20.4108  -50.1065   -6.1953 C   0  0  0  0  0  0  0  0  0  0  0  0
  -21.1737  -44.1272   -7.3344 C   0  0  0  0  0  0  0  0  0  0  0  0
  -21.4309  -44.0400   -8.6051 O   0  0  0  0  0  0  0  0  0  0  0  0
  -19.8963  -43.6813   -6.9674 N   0  0  0  0  0  0  0  0  0  0  0  0
  -19.4840  -42.7022   -5.9964 C   0  0  1  0  0  0  0  0  0  0  0  0
  -19.2479  -43.4801   -4.6923 C   0  0  0  0  0  0  0  0  0  0  0  0
  -18.1291  -42.1288   -6.3253 C   0  0  0  0  0  0  0  0  0  0  0  0
  -17.2191  -43.0114   -6.4208 O   0  0  0  0  0  0  0  0  0  0  0  0
  -17.7959  -40.8056   -6.5238 N   0  0  0  0  0  0  0  0  0  0  0  0
  1  2  1  0
  2  3  1  0
  3  4  1  0
  4  5  1  0
  5  6  1  0
  6  7  2  0
  6  8  1  0
  8  9  1  6
  8 10  1  0
 10 11  1  0
 11 12  1  1
 11 13  1  0
 13 14  1  1
 14 15  1  0
 15 16  1  1
 15 17  1  0
 17 18  1  0
 18 19  1  0
 19 20  1  0
 20 21  1  0
 21 22  1  0
 22 23  1  0
 23 24  1  0
 24 25  1  1
 25 26  1  0
 26 27  2  0
 26 28  1  0
 28 29  1  0
 29 30  1  0
 29 31  1  0
 29 32  1  0
 24 33  1  0
 33 34  2  0
 33 35  1  0
 35 36  1  0
 36 37  1  1
 36 38  1  0
 38 39  2  0
 38 40  1  0
 40 13  1  0
M  END
$$$$
