
     RDKit          3D

 40 40  0  0  0  0  0  0  0  0999 V2000
  -14.4853  -41.7808  -14.7862 C   0  0  0  0  0  0  0  0  0  0  0  0
  -13.0945  -41.2463  -14.4233 C   0  0  0  0  0  0  0  0  0  0  0  0
  -13.2377  -40.2284  -13.3316 C   0  0  0  0  0  0  0  0  0  0  0  0
  -13.5171  -40.8110  -11.9925 C   0  0  0  0  0  0  0  0  0  0  0  0
  -13.3603  -39.8824  -10.8859 N   0  0  0  0  0  0  0  0  0  0  0  0
  -14.4934  -39.2646  -10.3038 C   0  0  0  0  0  0  0  0  0  0  0  0
  -15.4214  -38.9003  -11.0633 O   0  0  0  0  0  0  0  0  0  0  0  0
  -14.6117  -39.0415   -8.8595 C   0  0  2  0  0  0  0  0  0  0  0  0
  -13.3064  -39.3588   -8.1781 C   0  0  0  0  0  0  0  0  0  0  0  0
  -15.7808  -39.8062   -8.2561 C   0  0  0  0  0  0  0  0  0  0  0  0
  -17.0806  -39.1195   -8.4764 C   0  0  2  0  0  0  0  0  0  0  0  0
  -16.9602  -37.7400   -8.1314 O   0  0  0  0  0  0  0  0  0  0  0  0
  -18.2054  -39.6460   -7.5725 C   0  0  2  0  0  0  0  0  0  0  0  0
  -18.6380  -38.5344   -6.6282 C   0  0  0  0  0  0  0  0  0  0  0  0
  -19.7960  -37.7298   -7.1061 C   0  0  2  0  0  0  0  0  0  0  0  0
  -19.5697  -36.2635   -6.7027 C   0  0  0  0  0  0  0  0  0  0  0  0
  -21.0633  -38.1567   -6.3685 C   0  0  0  0  0  0  0  0  0  0  0  0
  -21.7001  -39.2348   -7.2404 C   0  0  0  0  0  0  0  0  0  0  0  0
  -23.1127  -39.4254   -6.7553 C   0  0  0  0  0  0  0  0  0  0  0  0
  -23.0573  -40.3813   -5.5743 C   0  0  0  0  0  0  0  0  0  0  0  0
  -22.8868  -41.7952   -6.1000 C   0  0  0  0  0  0  0  0  0  0  0  0
  -22.5029  -42.7058   -5.0059 C   0  0  0  0  0  0  0  0  0  0  0  0
  -22.3097  -44.1344   -5.3695 C   0  0  0  0  0  0  0  0  0  0  0  0
  -22.1685  -44.4744   -6.8020 C   0  0  2  0  0  0  0  0  0  0  0  0
  -22.0992  -45.9125   -6.9605 N   0  0  0  0  0  0  0  0  0  0  0  0
  -21.0291  -46.6493   -7.4972 C   0  0  0  0  0  0  0  0  0  0  0  0
  -20.7327  -46.6954   -8.7076 O   0  0  0  0  0  0  0  0  0  0  0  0
  -20.1902  -47.4131   -6.6544 O   0  0  0  0  0  0  0  0  0  0  0  0
  -19.0189  -47.9648   -7.2115 C   0  0  0  0  0  0  0  0  0  0  0  0
  -19.2862  -48.9574   -8.3172 C   0  0  0  0  0  0  0  0  0  0  0  0
  -18.0828  -48.5056   -6.1779 C   0  0  0  0  0  0  0  0  0  0  0  0
  -18.2852  -46.7899   -7.9088 C   0  0  0  0  0  0  0  0  0  0  0  0
  -21.1549  -43.8429   -7.6192 C   0  0  0  0  0  0  0  0  0  0  0  0
  -21.5589  -43.5751   -8.8248 O   0  0  0  0  0  0  0  0  0  0  0  0
  -19.8281  -43.4750   -7.3550 N   0  0  0  0  0  0  0  0  0  0  0  0
  -19.2693  -42.6482   -6.3180 C   0  0  1  0  0  0  0  0  0  0  0  0
  -18.9060  -43.6041   -5.1710 C   0  0  0  0  0  0  0  0  0  0  0  0
  -17.9445  -42.0585   -6.7301 C   0  0  0  0  0  0  0  0  0  0  0  0
  -17.0834  -42.9351   -7.0562 O   0  0  0  0  0  0  0  0  0  0  0  0
  -17.5920  -40.7266   -6.7861 N   0  0  0  0  0  0  0  0  0  0  0  0
  1  2  1  0
  2  3  1  0
  3  4  1  0
  4  5  1  0
  5  6  1  0
  6  7  2  0
  6  8  1  0
  8  9  1  1
  8 10  1  0
 10 11  1  0
 11 12  1  1
 11 13  1  0
 13 14  1  1
 14 15  1  0
 15 16  1  1
 15 17  1  0
 17 18  1  0
 18 19  1  0
 19 20  1  0
 20 21  1  0
 21 22  1  0
 22 23  1  0
 23 24  1  0
 24 25  1  1
 25 26  1  0
 26 27  2  0
 26 28  1  0
 28 29  1  0
 29 30  1  0
 29 31  1  0
 29 32  1  0
 24 33  1  0
 33 34  2  0
 33 35  1  0
 35 36  1  0
 36 37  1  1
 36 38  1  0
 38 39  2  0
 38 40  1  0
 40 13  1  0
M  END
$$$$
