
     RDKit          3D

 40 40  0  0  0  0  0  0  0  0999 V2000
  -13.9778  -33.5377  -11.2855 C   0  0  0  0  0  0  0  0  0  0  0  0
  -12.9160  -34.5989  -11.5993 C   0  0  0  0  0  0  0  0  0  0  0  0
  -12.9636  -35.6583  -10.5392 C   0  0  0  0  0  0  0  0  0  0  0  0
  -13.1489  -37.0359  -11.0668 C   0  0  0  0  0  0  0  0  0  0  0  0
  -13.0820  -38.0816  -10.0602 N   0  0  0  0  0  0  0  0  0  0  0  0
  -14.0691  -39.0955  -10.0147 C   0  0  0  0  0  0  0  0  0  0  0  0
  -14.5797  -39.4700  -11.0962 O   0  0  0  0  0  0  0  0  0  0  0  0
  -14.5056  -39.7115   -8.7578 C   0  0  2  0  0  0  0  0  0  0  0  0
  -13.4551  -40.6685   -8.2581 C   0  0  0  0  0  0  0  0  0  0  0  0
  -15.8726  -40.3677   -8.8865 C   0  0  0  0  0  0  0  0  0  0  0  0
  -16.9815  -39.3789   -8.8444 C   0  0  2  0  0  0  0  0  0  0  0  0
  -16.5354  -38.1828   -8.2065 O   0  0  0  0  0  0  0  0  0  0  0  0
  -18.1767  -39.8438   -7.9988 C   0  0  2  0  0  0  0  0  0  0  0  0
  -18.8381  -38.6259   -7.3713 C   0  0  0  0  0  0  0  0  0  0  0  0
  -19.9789  -38.0694   -8.1493 C   0  0  2  0  0  0  0  0  0  0  0  0
  -19.9426  -36.5363   -8.0379 C   0  0  0  0  0  0  0  0  0  0  0  0
  -21.2987  -38.4863   -7.5040 C   0  0  0  0  0  0  0  0  0  0  0  0
  -21.7047  -39.7804   -8.2029 C   0  0  0  0  0  0  0  0  0  0  0  0
  -23.1512  -40.0335   -7.8703 C   0  0  0  0  0  0  0  0  0  0  0  0
  -23.1868  -40.7263   -6.5174 C   0  0  0  0  0  0  0  0  0  0  0  0
  -22.8187  -42.1867   -6.7085 C   0  0  0  0  0  0  0  0  0  0  0  0
  -22.5218  -42.8147   -5.4082 C   0  0  0  0  0  0  0  0  0  0  0  0
  -22.1540  -44.2549   -5.4362 C   0  0  0  0  0  0  0  0  0  0  0  0
  -21.7752  -44.8507   -6.7359 C   0  0  2  0  0  0  0  0  0  0  0  0
  -21.5587  -46.2742   -6.5786 N   0  0  0  0  0  0  0  0  0  0  0  0
  -22.4729  -47.3016   -6.8697 C   0  0  0  0  0  0  0  0  0  0  0  0
  -22.8954  -48.1341   -6.0429 O   0  0  0  0  0  0  0  0  0  0  0  0
  -22.9889  -47.4535   -8.1766 O   0  0  0  0  0  0  0  0  0  0  0  0
  -22.7937  -48.6896   -8.8251 C   0  0  0  0  0  0  0  0  0  0  0  0
  -24.0801  -49.4066   -9.1573 C   0  0  0  0  0  0  0  0  0  0  0  0
  -21.8201  -49.5727   -8.1114 C   0  0  0  0  0  0  0  0  0  0  0  0
  -22.1660  -48.3529  -10.2025 C   0  0  0  0  0  0  0  0  0  0  0  0
  -20.7114  -44.2793   -7.5334 C   0  0  0  0  0  0  0  0  0  0  0  0
  -20.9559  -44.3014   -8.8094 O   0  0  0  0  0  0  0  0  0  0  0  0
  -19.4748  -43.7166   -7.1876 N   0  0  0  0  0  0  0  0  0  0  0  0
  -19.1482  -42.6437   -6.2856 C   0  0  1  0  0  0  0  0  0  0  0  0
  -18.8753  -43.3079   -4.9270 C   0  0  0  0  0  0  0  0  0  0  0  0
  -17.8335  -41.9978   -6.6424 C   0  0  0  0  0  0  0  0  0  0  0  0
  -16.8610  -42.8163   -6.6660 O   0  0  0  0  0  0  0  0  0  0  0  0
  -17.5937  -40.6713   -6.9322 N   0  0  0  0  0  0  0  0  0  0  0  0
  1  2  1  0
  2  3  1  0
  3  4  1  0
  4  5  1  0
  5  6  1  0
  6  7  2  0
  6  8  1  0
  8  9  1  6
  8 10  1  0
 10 11  1  0
 11 12  1  1
 11 13  1  0
 13 14  1  1
 14 15  1  0
 15 16  1  1
 15 17  1  0
 17 18  1  0
 18 19  1  0
 19 20  1  0
 20 21  1  0
 21 22  1  0
 22 23  1  0
 23 24  1  0
 24 25  1  1
 25 26  1  0
 26 27  2  0
 26 28  1  0
 28 29  1  0
 29 30  1  0
 29 31  1  0
 29 32  1  0
 24 33  1  0
 33 34  2  0
 33 35  1  0
 35 36  1  0
 36 37  1  1
 36 38  1  0
 38 39  2  0
 38 40  1  0
 40 13  1  0
M  END
$$$$
