
     RDKit          3D

 40 40  0  0  0  0  0  0  0  0999 V2000
  -12.3989  -34.9025  -12.8127 C   0  0  0  0  0  0  0  0  0  0  0  0
  -12.7705  -35.9169  -11.7242 C   0  0  0  0  0  0  0  0  0  0  0  0
  -13.6171  -36.9932  -12.3354 C   0  0  0  0  0  0  0  0  0  0  0  0
  -13.2627  -38.3676  -11.8930 C   0  0  0  0  0  0  0  0  0  0  0  0
  -13.6000  -38.6624  -10.5107 N   0  0  0  0  0  0  0  0  0  0  0  0
  -14.4269  -39.7676  -10.1957 C   0  0  0  0  0  0  0  0  0  0  0  0
  -15.1019  -40.2807  -11.1187 O   0  0  0  0  0  0  0  0  0  0  0  0
  -14.5161  -40.3215   -8.8411 C   0  0  2  0  0  0  0  0  0  0  0  0
  -13.5101  -41.4291   -8.6676 C   0  0  0  0  0  0  0  0  0  0  0  0
  -15.9304  -40.7645   -8.4959 C   0  0  0  0  0  0  0  0  0  0  0  0
  -16.8657  -39.6173   -8.3598 C   0  0  2  0  0  0  0  0  0  0  0  0
  -16.2375  -38.5695   -7.6223 O   0  0  0  0  0  0  0  0  0  0  0  0
  -18.1267  -39.9557   -7.5507 C   0  0  2  0  0  0  0  0  0  0  0  0
  -18.6646  -38.6789   -6.9221 C   0  0  0  0  0  0  0  0  0  0  0  0
  -19.7159  -37.9896   -7.7197 C   0  0  2  0  0  0  0  0  0  0  0  0
  -19.5121  -36.4716   -7.5854 C   0  0  0  0  0  0  0  0  0  0  0  0
  -21.0902  -38.2641   -7.1130 C   0  0  0  0  0  0  0  0  0  0  0  0
  -21.6193  -39.4967   -7.8402 C   0  0  0  0  0  0  0  0  0  0  0  0
  -23.0931  -39.5906   -7.5468 C   0  0  0  0  0  0  0  0  0  0  0  0
  -23.2407  -40.2908   -6.2053 C   0  0  0  0  0  0  0  0  0  0  0  0
  -23.0325  -41.7808   -6.4084 C   0  0  0  0  0  0  0  0  0  0  0  0
  -22.8412  -42.4530   -5.1104 C   0  0  0  0  0  0  0  0  0  0  0  0
  -22.6353  -43.9249   -5.1501 C   0  0  0  0  0  0  0  0  0  0  0  0
  -22.2915  -44.5441   -6.4486 C   0  0  2  0  0  0  0  0  0  0  0  0
  -22.2389  -45.9846   -6.3065 N   0  0  0  0  0  0  0  0  0  0  0  0
  -22.3755  -46.9367   -7.3317 C   0  0  0  0  0  0  0  0  0  0  0  0
  -22.7307  -46.6800   -8.4991 O   0  0  0  0  0  0  0  0  0  0  0  0
  -22.1034  -48.3013   -7.0840 O   0  0  0  0  0  0  0  0  0  0  0  0
  -21.0988  -48.9251   -7.8509 C   0  0  0  0  0  0  0  0  0  0  0  0
  -19.6992  -48.5156   -7.4597 C   0  0  0  0  0  0  0  0  0  0  0  0
  -21.3338  -48.8064   -9.3232 C   0  0  0  0  0  0  0  0  0  0  0  0
  -21.1759  -50.4350   -7.5057 C   0  0  0  0  0  0  0  0  0  0  0  0
  -21.1504  -44.0858   -7.2114 C   0  0  0  0  0  0  0  0  0  0  0  0
  -21.3626  -44.0657   -8.4932 O   0  0  0  0  0  0  0  0  0  0  0  0
  -19.8683  -43.6686   -6.8273 N   0  0  0  0  0  0  0  0  0  0  0  0
  -19.4478  -42.6494   -5.9023 C   0  0  1  0  0  0  0  0  0  0  0  0
  -19.2860  -43.3556   -4.5470 C   0  0  0  0  0  0  0  0  0  0  0  0
  -18.0607  -42.1501   -6.2174 C   0  0  0  0  0  0  0  0  0  0  0  0
  -17.1850  -43.0717   -6.2289 O   0  0  0  0  0  0  0  0  0  0  0  0
  -17.6673  -40.8554   -6.4821 N   0  0  0  0  0  0  0  0  0  0  0  0
  1  2  1  0
  2  3  1  0
  3  4  1  0
  4  5  1  0
  5  6  1  0
  6  7  2  0
  6  8  1  0
  8  9  1  6
  8 10  1  0
 10 11  1  0
 11 12  1  1
 11 13  1  0
 13 14  1  1
 14 15  1  0
 15 16  1  1
 15 17  1  0
 17 18  1  0
 18 19  1  0
 19 20  1  0
 20 21  1  0
 21 22  1  0
 22 23  1  0
 23 24  1  0
 24 25  1  1
 25 26  1  0
 26 27  2  0
 26 28  1  0
 28 29  1  0
 29 30  1  0
 29 31  1  0
 29 32  1  0
 24 33  1  0
 33 34  2  0
 33 35  1  0
 35 36  1  0
 36 37  1  1
 36 38  1  0
 38 39  2  0
 38 40  1  0
 40 13  1  0
M  END
$$$$
