
     RDKit          3D

 40 40  0  0  0  0  0  0  0  0999 V2000
  -11.3074  -36.9439   -8.8592 C   0  0  0  0  0  0  0  0  0  0  0  0
  -10.8957  -37.9597   -9.9318 C   0  0  0  0  0  0  0  0  0  0  0  0
  -11.9037  -39.0695   -9.9587 C   0  0  0  0  0  0  0  0  0  0  0  0
  -13.2476  -38.6800   -9.4558 C   0  0  0  0  0  0  0  0  0  0  0  0
  -14.2170  -38.3791  -10.4955 N   0  0  0  0  0  0  0  0  0  0  0  0
  -14.9498  -39.4207  -11.1141 C   0  0  0  0  0  0  0  0  0  0  0  0
  -14.3897  -40.0753  -12.0243 O   0  0  0  0  0  0  0  0  0  0  0  0
  -16.3248  -39.7513  -10.7271 C   0  0  2  0  0  0  0  0  0  0  0  0
  -17.0711  -40.3214  -11.9048 C   0  0  0  0  0  0  0  0  0  0  0  0
  -17.0452  -38.5643  -10.1045 C   0  0  0  0  0  0  0  0  0  0  0  0
  -18.5192  -38.7527  -10.0669 C   0  0  2  0  0  0  0  0  0  0  0  0
  -19.1667  -37.4811  -10.0639 O   0  0  0  0  0  0  0  0  0  0  0  0
  -19.0103  -39.4383   -8.7831 C   0  0  2  0  0  0  0  0  0  0  0  0
  -19.6688  -38.3968   -7.8909 C   0  0  0  0  0  0  0  0  0  0  0  0
  -21.1452  -38.2881   -8.0494 C   0  0  2  0  0  0  0  0  0  0  0  0
  -21.5405  -36.8074   -7.9256 C   0  0  0  0  0  0  0  0  0  0  0  0
  -21.8443  -38.9876   -6.8857 C   0  0  0  0  0  0  0  0  0  0  0  0
  -22.0930  -40.4170   -7.3579 C   0  0  0  0  0  0  0  0  0  0  0  0
  -23.0873  -41.0342   -6.4105 C   0  0  0  0  0  0  0  0  0  0  0  0
  -22.3071  -41.5428   -5.2087 C   0  0  0  0  0  0  0  0  0  0  0  0
  -21.6286  -42.8475   -5.5856 C   0  0  0  0  0  0  0  0  0  0  0  0
  -20.6114  -43.2051   -4.5801 C   0  0  0  0  0  0  0  0  0  0  0  0
  -19.8675  -44.4714   -4.8110 C   0  0  0  0  0  0  0  0  0  0  0  0
  -19.9357  -45.0825   -6.1563 C   0  0  2  0  0  0  0  0  0  0  0  0
  -19.2429  -46.3545   -6.1530 N   0  0  0  0  0  0  0  0  0  0  0  0
  -19.3258  -47.3603   -7.1316 C   0  0  0  0  0  0  0  0  0  0  0  0
  -19.6934  -47.1792   -8.3094 O   0  0  0  0  0  0  0  0  0  0  0  0
  -18.9793  -48.6945   -6.8199 O   0  0  0  0  0  0  0  0  0  0  0  0
  -19.8538  -49.7190   -7.2349 C   0  0  0  0  0  0  0  0  0  0  0  0
  -19.1479  -50.9004   -7.8557 C   0  0  0  0  0  0  0  0  0  0  0  0
  -20.9750  -49.2160   -8.0876 C   0  0  0  0  0  0  0  0  0  0  0  0
  -20.4945  -50.2820   -5.9397 C   0  0  0  0  0  0  0  0  0  0  0  0
  -19.5672  -44.3279   -7.3347 C   0  0  0  0  0  0  0  0  0  0  0  0
  -20.3280  -44.5702   -8.3598 O   0  0  0  0  0  0  0  0  0  0  0  0
  -18.5472  -43.3965   -7.5744 N   0  0  0  0  0  0  0  0  0  0  0  0
  -18.2074  -42.1761   -6.8914 C   0  0  1  0  0  0  0  0  0  0  0  0
  -17.1736  -42.5681   -5.8240 C   0  0  0  0  0  0  0  0  0  0  0  0
  -17.4566  -41.2263   -7.7897 C   0  0  0  0  0  0  0  0  0  0  0  0
  -16.3937  -41.7273   -8.2752 O   0  0  0  0  0  0  0  0  0  0  0  0
  -17.7931  -39.9309   -8.1212 N   0  0  0  0  0  0  0  0  0  0  0  0
  1  2  1  0
  2  3  1  0
  3  4  1  0
  4  5  1  0
  5  6  1  0
  6  7  2  0
  6  8  1  0
  8  9  1  6
  8 10  1  0
 10 11  1  0
 11 12  1  1
 11 13  1  0
 13 14  1  1
 14 15  1  0
 15 16  1  1
 15 17  1  0
 17 18  1  0
 18 19  1  0
 19 20  1  0
 20 21  1  0
 21 22  1  0
 22 23  1  0
 23 24  1  0
 24 25  1  1
 25 26  1  0
 26 27  2  0
 26 28  1  0
 28 29  1  0
 29 30  1  0
 29 31  1  0
 29 32  1  0
 24 33  1  0
 33 34  2  0
 33 35  1  0
 35 36  1  0
 36 37  1  1
 36 38  1  0
 38 39  2  0
 38 40  1  0
 40 13  1  0
M  END
$$$$
