
     RDKit          3D

 40 40  0  0  0  0  0  0  0  0999 V2000
  -10.1855  -35.1462   -8.9704 C   0  0  0  0  0  0  0  0  0  0  0  0
  -10.9968  -36.4211   -9.2318 C   0  0  0  0  0  0  0  0  0  0  0  0
  -11.4607  -36.4149  -10.6577 C   0  0  0  0  0  0  0  0  0  0  0  0
  -12.9048  -36.7254  -10.8267 C   0  0  0  0  0  0  0  0  0  0  0  0
  -13.1968  -38.1295  -11.0605 N   0  0  0  0  0  0  0  0  0  0  0  0
  -14.5332  -38.5962  -11.0378 C   0  0  0  0  0  0  0  0  0  0  0  0
  -15.4100  -37.8493  -10.5437 O   0  0  0  0  0  0  0  0  0  0  0  0
  -14.9164  -39.9086  -11.5675 C   0  0  2  0  0  0  0  0  0  0  0  0
  -14.2977  -40.1199  -12.9245 C   0  0  0  0  0  0  0  0  0  0  0  0
  -16.4259  -40.1009  -11.5830 C   0  0  0  0  0  0  0  0  0  0  0  0
  -16.8613  -41.2328  -10.7236 C   0  0  2  0  0  0  0  0  0  0  0  0
  -17.4847  -42.2342  -11.5266 O   0  0  0  0  0  0  0  0  0  0  0  0
  -17.9347  -40.8377   -9.6983 C   0  0  2  0  0  0  0  0  0  0  0  0
  -18.3829  -39.4115   -9.9808 C   0  0  0  0  0  0  0  0  0  0  0  0
  -19.5873  -39.2999  -10.8488 C   0  0  2  0  0  0  0  0  0  0  0  0
  -19.4090  -38.0861  -11.7755 C   0  0  0  0  0  0  0  0  0  0  0  0
  -20.8123  -38.9760   -9.9963 C   0  0  0  0  0  0  0  0  0  0  0  0
  -21.4312  -40.3246   -9.6410 C   0  0  0  0  0  0  0  0  0  0  0  0
  -22.8189  -40.0567   -9.1218 C   0  0  0  0  0  0  0  0  0  0  0  0
  -22.6874  -39.7035   -7.6488 C   0  0  0  0  0  0  0  0  0  0  0  0
  -22.4754  -40.9823   -6.8586 C   0  0  0  0  0  0  0  0  0  0  0  0
  -22.0204  -40.6703   -5.4915 C   0  0  0  0  0  0  0  0  0  0  0  0
  -21.7802  -41.8295   -4.5921 C   0  0  0  0  0  0  0  0  0  0  0  0
  -21.6700  -43.1722   -5.2026 C   0  0  2  0  0  0  0  0  0  0  0  0
  -21.5467  -44.1747   -4.1644 N   0  0  0  0  0  0  0  0  0  0  0  0
  -21.9007  -45.5318   -4.2588 C   0  0  0  0  0  0  0  0  0  0  0  0
  -22.9381  -45.9609   -4.8018 O   0  0  0  0  0  0  0  0  0  0  0  0
  -21.0599  -46.5315   -3.7194 O   0  0  0  0  0  0  0  0  0  0  0  0
  -21.1320  -46.7793   -2.3338 C   0  0  0  0  0  0  0  0  0  0  0  0
  -22.4924  -47.2454   -1.8741 C   0  0  0  0  0  0  0  0  0  0  0  0
  -20.6148  -45.6414   -1.5123 C   0  0  0  0  0  0  0  0  0  0  0  0
  -20.1943  -47.9855   -2.0680 C   0  0  0  0  0  0  0  0  0  0  0  0
  -20.7093  -43.4346   -6.2525 C   0  0  0  0  0  0  0  0  0  0  0  0
  -21.1615  -44.2269   -7.1778 O   0  0  0  0  0  0  0  0  0  0  0  0
  -19.3912  -43.0005   -6.4513 N   0  0  0  0  0  0  0  0  0  0  0  0
  -18.8346  -41.6743   -6.5032 C   0  0  1  0  0  0  0  0  0  0  0  0
  -18.3966  -41.3480   -5.0667 C   0  0  0  0  0  0  0  0  0  0  0  0
  -17.5487  -41.6410   -7.2893 C   0  0  0  0  0  0  0  0  0  0  0  0
  -16.6629  -42.4337   -6.8385 O   0  0  0  0  0  0  0  0  0  0  0  0
  -17.2531  -40.8732   -8.3958 N   0  0  0  0  0  0  0  0  0  0  0  0
  1  2  1  0
  2  3  1  0
  3  4  1  0
  4  5  1  0
  5  6  1  0
  6  7  2  0
  6  8  1  0
  8  9  1  6
  8 10  1  0
 10 11  1  0
 11 12  1  6
 11 13  1  0
 13 14  1  6
 14 15  1  0
 15 16  1  6
 15 17  1  0
 17 18  1  0
 18 19  1  0
 19 20  1  0
 20 21  1  0
 21 22  1  0
 22 23  1  0
 23 24  1  0
 24 25  1  1
 25 26  1  0
 26 27  2  0
 26 28  1  0
 28 29  1  0
 29 30  1  0
 29 31  1  0
 29 32  1  0
 24 33  1  0
 33 34  2  0
 33 35  1  0
 35 36  1  0
 36 37  1  1
 36 38  1  0
 38 39  2  0
 38 40  1  0
 40 13  1  0
M  END
$$$$
