
     RDKit          3D

 40 40  0  0  0  0  0  0  0  0999 V2000
  -14.0508  -35.8814  -14.3201 C   0  0  0  0  0  0  0  0  0  0  0  0
  -13.7266  -35.3750  -12.9093 C   0  0  0  0  0  0  0  0  0  0  0  0
  -14.2249  -36.3759  -11.9102 C   0  0  0  0  0  0  0  0  0  0  0  0
  -13.3157  -37.5349  -11.7083 C   0  0  0  0  0  0  0  0  0  0  0  0
  -13.3938  -38.1405  -10.3898 N   0  0  0  0  0  0  0  0  0  0  0  0
  -14.4995  -38.9521  -10.0391 C   0  0  0  0  0  0  0  0  0  0  0  0
  -15.3454  -39.2114  -10.9269 O   0  0  0  0  0  0  0  0  0  0  0  0
  -14.6820  -39.4906   -8.6876 C   0  0  2  0  0  0  0  0  0  0  0  0
  -13.4407  -40.2234   -8.2505 C   0  0  0  0  0  0  0  0  0  0  0  0
  -15.9317  -40.3520   -8.5787 C   0  0  0  0  0  0  0  0  0  0  0  0
  -17.1740  -39.5853   -8.8582 C   0  0  2  0  0  0  0  0  0  0  0  0
  -16.9648  -38.2055   -8.5603 O   0  0  0  0  0  0  0  0  0  0  0  0
  -18.3545  -39.9974   -7.9660 C   0  0  2  0  0  0  0  0  0  0  0  0
  -19.1098  -38.7469   -7.5415 C   0  0  0  0  0  0  0  0  0  0  0  0
  -20.2671  -38.3961   -8.4099 C   0  0  2  0  0  0  0  0  0  0  0  0
  -20.3355  -36.8652   -8.5351 C   0  0  0  0  0  0  0  0  0  0  0  0
  -21.5706  -38.8001   -7.7244 C   0  0  0  0  0  0  0  0  0  0  0  0
  -21.8733  -40.2107   -8.2209 C   0  0  0  0  0  0  0  0  0  0  0  0
  -23.3070  -40.5098   -7.8712 C   0  0  0  0  0  0  0  0  0  0  0  0
  -23.3272  -40.9889   -6.4284 C   0  0  0  0  0  0  0  0  0  0  0  0
  -22.8584  -42.4322   -6.3881 C   0  0  0  0  0  0  0  0  0  0  0  0
  -22.5501  -42.8323   -5.0031 C   0  0  0  0  0  0  0  0  0  0  0  0
  -22.0866  -44.2309   -4.8047 C   0  0  0  0  0  0  0  0  0  0  0  0
  -21.6393  -44.9903   -5.9925 C   0  0  2  0  0  0  0  0  0  0  0  0
  -21.3321  -46.3547   -5.6155 N   0  0  0  0  0  0  0  0  0  0  0  0
  -21.5267  -47.5075   -6.3961 C   0  0  0  0  0  0  0  0  0  0  0  0
  -22.6387  -47.9582   -6.7356 O   0  0  0  0  0  0  0  0  0  0  0  0
  -20.4202  -48.2532   -6.8622 O   0  0  0  0  0  0  0  0  0  0  0  0
  -20.6652  -49.5304   -7.4055 C   0  0  0  0  0  0  0  0  0  0  0  0
  -19.8647  -49.8194   -8.6525 C   0  0  0  0  0  0  0  0  0  0  0  0
  -22.1223  -49.8143   -7.5885 C   0  0  0  0  0  0  0  0  0  0  0  0
  -20.1395  -50.5462   -6.3584 C   0  0  0  0  0  0  0  0  0  0  0  0
  -20.5981  -44.4750   -6.8552 C   0  0  0  0  0  0  0  0  0  0  0  0
  -20.8114  -44.7085   -8.1155 O   0  0  0  0  0  0  0  0  0  0  0  0
  -19.4099  -43.7817   -6.5849 N   0  0  0  0  0  0  0  0  0  0  0  0
  -19.1762  -42.5638   -5.8547 C   0  0  1  0  0  0  0  0  0  0  0  0
  -18.8908  -42.9923   -4.4067 C   0  0  0  0  0  0  0  0  0  0  0  0
  -17.8997  -41.8903   -6.2903 C   0  0  0  0  0  0  0  0  0  0  0  0
  -16.8745  -42.6333   -6.1757 O   0  0  0  0  0  0  0  0  0  0  0  0
  -17.7422  -40.6101   -6.7777 N   0  0  0  0  0  0  0  0  0  0  0  0
  1  2  1  0
  2  3  1  0
  3  4  1  0
  4  5  1  0
  5  6  1  0
  6  7  2  0
  6  8  1  0
  8  9  1  6
  8 10  1  0
 10 11  1  0
 11 12  1  1
 11 13  1  0
 13 14  1  1
 14 15  1  0
 15 16  1  1
 15 17  1  0
 17 18  1  0
 18 19  1  0
 19 20  1  0
 20 21  1  0
 21 22  1  0
 22 23  1  0
 23 24  1  0
 24 25  1  1
 25 26  1  0
 26 27  2  0
 26 28  1  0
 28 29  1  0
 29 30  1  0
 29 31  1  0
 29 32  1  0
 24 33  1  0
 33 34  2  0
 33 35  1  0
 35 36  1  0
 36 37  1  1
 36 38  1  0
 38 39  2  0
 38 40  1  0
 40 13  1  0
M  END
$$$$
