
     RDKit          3D

 40 40  0  0  0  0  0  0  0  0999 V2000
  -12.3789  -36.1921  -14.0649 C   0  0  0  0  0  0  0  0  0  0  0  0
  -12.9898  -35.4757  -12.8544 C   0  0  0  0  0  0  0  0  0  0  0  0
  -12.9015  -36.3806  -11.6620 C   0  0  0  0  0  0  0  0  0  0  0  0
  -13.8181  -37.5498  -11.7193 C   0  0  0  0  0  0  0  0  0  0  0  0
  -13.7254  -38.4455  -10.5789 N   0  0  0  0  0  0  0  0  0  0  0  0
  -14.6100  -39.5443  -10.4579 C   0  0  0  0  0  0  0  0  0  0  0  0
  -15.3875  -39.7828  -11.4115 O   0  0  0  0  0  0  0  0  0  0  0  0
  -14.6431  -40.3992   -9.2672 C   0  0  2  0  0  0  0  0  0  0  0  0
  -13.7921  -41.6228   -9.4847 C   0  0  0  0  0  0  0  0  0  0  0  0
  -16.0651  -40.7488   -8.8531 C   0  0  0  0  0  0  0  0  0  0  0  0
  -16.8497  -39.5507   -8.4553 C   0  0  2  0  0  0  0  0  0  0  0  0
  -16.0680  -38.7300   -7.5882 O   0  0  0  0  0  0  0  0  0  0  0  0
  -18.1037  -39.8917   -7.6361 C   0  0  2  0  0  0  0  0  0  0  0  0
  -18.6934  -38.6037   -7.0814 C   0  0  0  0  0  0  0  0  0  0  0  0
  -19.7633  -37.9986   -7.9215 C   0  0  2  0  0  0  0  0  0  0  0  0
  -19.6170  -36.4690   -7.8690 C   0  0  0  0  0  0  0  0  0  0  0  0
  -21.1311  -38.2910   -7.3087 C   0  0  0  0  0  0  0  0  0  0  0  0
  -21.6084  -39.5802   -7.9706 C   0  0  0  0  0  0  0  0  0  0  0  0
  -23.0800  -39.7132   -7.6811 C   0  0  0  0  0  0  0  0  0  0  0  0
  -23.2120  -40.3446   -6.3042 C   0  0  0  0  0  0  0  0  0  0  0  0
  -22.9472  -41.8345   -6.4245 C   0  0  0  0  0  0  0  0  0  0  0  0
  -22.7412  -42.4276   -5.0906 C   0  0  0  0  0  0  0  0  0  0  0  0
  -22.4806  -43.8906   -5.0487 C   0  0  0  0  0  0  0  0  0  0  0  0
  -22.1038  -44.5662   -6.3094 C   0  0  2  0  0  0  0  0  0  0  0  0
  -21.9990  -45.9939   -6.0886 N   0  0  0  0  0  0  0  0  0  0  0  0
  -21.4628  -46.9451   -6.9740 C   0  0  0  0  0  0  0  0  0  0  0  0
  -20.8605  -46.6734   -8.0316 O   0  0  0  0  0  0  0  0  0  0  0  0
  -21.5812  -48.3266   -6.7003 O   0  0  0  0  0  0  0  0  0  0  0  0
  -22.0511  -49.1667   -7.7298 C   0  0  0  0  0  0  0  0  0  0  0  0
  -22.0748  -50.6284   -7.3524 C   0  0  0  0  0  0  0  0  0  0  0  0
  -21.3599  -48.9290   -9.0347 C   0  0  0  0  0  0  0  0  0  0  0  0
  -23.5414  -48.7918   -7.9380 C   0  0  0  0  0  0  0  0  0  0  0  0
  -20.9746  -44.1076   -7.0895 C   0  0  0  0  0  0  0  0  0  0  0  0
  -21.1774  -44.1652   -8.3717 O   0  0  0  0  0  0  0  0  0  0  0  0
  -19.7119  -43.6225   -6.7213 N   0  0  0  0  0  0  0  0  0  0  0  0
  -19.3368  -42.5395   -5.8509 C   0  0  1  0  0  0  0  0  0  0  0  0
  -19.1595  -43.1644   -4.4582 C   0  0  0  0  0  0  0  0  0  0  0  0
  -17.9667  -42.0064   -6.1847 C   0  0  0  0  0  0  0  0  0  0  0  0
  -17.0573  -42.8938   -6.1408 O   0  0  0  0  0  0  0  0  0  0  0  0
  -17.6196  -40.7141   -6.5174 N   0  0  0  0  0  0  0  0  0  0  0  0
  1  2  1  0
  2  3  1  0
  3  4  1  0
  4  5  1  0
  5  6  1  0
  6  7  2  0
  6  8  1  0
  8  9  1  6
  8 10  1  0
 10 11  1  0
 11 12  1  1
 11 13  1  0
 13 14  1  1
 14 15  1  0
 15 16  1  1
 15 17  1  0
 17 18  1  0
 18 19  1  0
 19 20  1  0
 20 21  1  0
 21 22  1  0
 22 23  1  0
 23 24  1  0
 24 25  1  1
 25 26  1  0
 26 27  2  0
 26 28  1  0
 28 29  1  0
 29 30  1  0
 29 31  1  0
 29 32  1  0
 24 33  1  0
 33 34  2  0
 33 35  1  0
 35 36  1  0
 36 37  1  1
 36 38  1  0
 38 39  2  0
 38 40  1  0
 40 13  1  0
M  END
$$$$
