
     RDKit          3D

 40 40  0  0  0  0  0  0  0  0999 V2000
  -11.4958  -36.1218  -13.9485 C   0  0  0  0  0  0  0  0  0  0  0  0
  -11.9068  -37.5628  -13.6219 C   0  0  0  0  0  0  0  0  0  0  0  0
  -13.0101  -37.5323  -12.6068 C   0  0  0  0  0  0  0  0  0  0  0  0
  -12.6656  -38.1873  -11.3174 C   0  0  0  0  0  0  0  0  0  0  0  0
  -13.7068  -38.1144  -10.3064 N   0  0  0  0  0  0  0  0  0  0  0  0
  -14.0352  -39.2542   -9.5335 C   0  0  0  0  0  0  0  0  0  0  0  0
  -14.4331  -40.2793  -10.1347 O   0  0  0  0  0  0  0  0  0  0  0  0
  -13.9253  -39.2706   -8.0715 C   0  0  2  0  0  0  0  0  0  0  0  0
  -12.7251  -40.0781   -7.6517 C   0  0  0  0  0  0  0  0  0  0  0  0
  -15.2074  -39.7503   -7.4067 C   0  0  0  0  0  0  0  0  0  0  0  0
  -16.4092  -39.4932   -8.2427 C   0  0  2  0  0  0  0  0  0  0  0  0
  -16.5869  -38.0872   -8.4100 O   0  0  0  0  0  0  0  0  0  0  0  0
  -17.7151  -39.9717   -7.5907 C   0  0  2  0  0  0  0  0  0  0  0  0
  -18.3542  -38.8033   -6.8554 C   0  0  0  0  0  0  0  0  0  0  0  0
  -19.3669  -38.0515   -7.6465 C   0  0  2  0  0  0  0  0  0  0  0  0
  -19.2383  -36.5573   -7.3074 C   0  0  0  0  0  0  0  0  0  0  0  0
  -20.7723  -38.4444   -7.1962 C   0  0  0  0  0  0  0  0  0  0  0  0
  -21.1898  -39.5903   -8.1131 C   0  0  0  0  0  0  0  0  0  0  0  0
  -22.6770  -39.7674   -7.9585 C   0  0  0  0  0  0  0  0  0  0  0  0
  -22.9010  -40.6373   -6.7318 C   0  0  0  0  0  0  0  0  0  0  0  0
  -22.6150  -42.0819   -7.1007 C   0  0  0  0  0  0  0  0  0  0  0  0
  -22.4992  -42.9078   -5.8850 C   0  0  0  0  0  0  0  0  0  0  0  0
  -22.2292  -44.3553   -6.0903 C   0  0  0  0  0  0  0  0  0  0  0  0
  -21.7578  -44.7927   -7.4223 C   0  0  2  0  0  0  0  0  0  0  0  0
  -21.6562  -46.2372   -7.4569 N   0  0  0  0  0  0  0  0  0  0  0  0
  -22.3801  -47.1507   -6.6711 C   0  0  0  0  0  0  0  0  0  0  0  0
  -22.4023  -48.3843   -6.8519 O   0  0  0  0  0  0  0  0  0  0  0  0
  -23.1579  -46.6998   -5.5806 O   0  0  0  0  0  0  0  0  0  0  0  0
  -24.5500  -46.9155   -5.6274 C   0  0  0  0  0  0  0  0  0  0  0  0
  -24.9475  -48.1146   -6.4542 C   0  0  0  0  0  0  0  0  0  0  0  0
  -25.3158  -45.6874   -6.0047 C   0  0  0  0  0  0  0  0  0  0  0  0
  -24.9729  -47.2797   -4.1806 C   0  0  0  0  0  0  0  0  0  0  0  0
  -20.5801  -44.2050   -8.0236 C   0  0  0  0  0  0  0  0  0  0  0  0
  -20.6907  -44.0282   -9.3062 O   0  0  0  0  0  0  0  0  0  0  0  0
  -19.3511  -43.7999   -7.4843 N   0  0  0  0  0  0  0  0  0  0  0  0
  -19.0485  -42.8942   -6.4075 C   0  0  1  0  0  0  0  0  0  0  0  0
  -18.9651  -43.7620   -5.1420 C   0  0  0  0  0  0  0  0  0  0  0  0
  -17.6629  -42.3152   -6.5404 C   0  0  0  0  0  0  0  0  0  0  0  0
  -16.7511  -43.1996   -6.5930 O   0  0  0  0  0  0  0  0  0  0  0  0
  -17.3045  -40.9854   -6.6078 N   0  0  0  0  0  0  0  0  0  0  0  0
  1  2  1  0
  2  3  1  0
  3  4  1  0
  4  5  1  0
  5  6  1  0
  6  7  2  0
  6  8  1  0
  8  9  1  6
  8 10  1  0
 10 11  1  0
 11 12  1  1
 11 13  1  0
 13 14  1  1
 14 15  1  0
 15 16  1  1
 15 17  1  0
 17 18  1  0
 18 19  1  0
 19 20  1  0
 20 21  1  0
 21 22  1  0
 22 23  1  0
 23 24  1  0
 24 25  1  1
 25 26  1  0
 26 27  2  0
 26 28  1  0
 28 29  1  0
 29 30  1  0
 29 31  1  0
 29 32  1  0
 24 33  1  0
 33 34  2  0
 33 35  1  0
 35 36  1  0
 36 37  1  1
 36 38  1  0
 38 39  2  0
 38 40  1  0
 40 13  1  0
M  END
$$$$
