
     RDKit          3D

 40 40  0  0  0  0  0  0  0  0999 V2000
  -12.0708  -38.7674  -15.3040 C   0  0  0  0  0  0  0  0  0  0  0  0
  -11.7207  -38.0729  -13.9822 C   0  0  0  0  0  0  0  0  0  0  0  0
  -12.9852  -37.8311  -13.2136 C   0  0  0  0  0  0  0  0  0  0  0  0
  -13.3150  -38.9023  -12.2366 C   0  0  0  0  0  0  0  0  0  0  0  0
  -14.5915  -38.7327  -11.5633 N   0  0  0  0  0  0  0  0  0  0  0  0
  -14.9850  -39.6275  -10.5392 C   0  0  0  0  0  0  0  0  0  0  0  0
  -15.1633  -40.8301  -10.8436 O   0  0  0  0  0  0  0  0  0  0  0  0
  -15.1873  -39.1953   -9.1528 C   0  0  2  0  0  0  0  0  0  0  0  0
  -13.9194  -39.3835   -8.3617 C   0  0  0  0  0  0  0  0  0  0  0  0
  -16.3806  -39.8841   -8.5069 C   0  0  0  0  0  0  0  0  0  0  0  0
  -17.2144  -38.9450   -7.7119 C   0  0  2  0  0  0  0  0  0  0  0  0
  -16.4883  -38.5126   -6.5620 O   0  0  0  0  0  0  0  0  0  0  0  0
  -18.4850  -39.5946   -7.1434 C   0  0  2  0  0  0  0  0  0  0  0  0
  -19.3059  -38.5290   -6.4327 C   0  0  0  0  0  0  0  0  0  0  0  0
  -20.3583  -37.8936   -7.2725 C   0  0  2  0  0  0  0  0  0  0  0  0
  -20.4371  -36.4019   -6.9085 C   0  0  0  0  0  0  0  0  0  0  0  0
  -21.7267  -38.4668   -6.9102 C   0  0  0  0  0  0  0  0  0  0  0  0
  -21.9450  -39.6376   -7.8638 C   0  0  0  0  0  0  0  0  0  0  0  0
  -23.4046  -40.0011   -7.7988 C   0  0  0  0  0  0  0  0  0  0  0  0
  -23.5871  -40.9157   -6.5980 C   0  0  0  0  0  0  0  0  0  0  0  0
  -23.1022  -42.3061   -6.9670 C   0  0  0  0  0  0  0  0  0  0  0  0
  -22.9530  -43.1346   -5.7567 C   0  0  0  0  0  0  0  0  0  0  0  0
  -22.4928  -44.5331   -5.9634 C   0  0  0  0  0  0  0  0  0  0  0  0
  -21.8957  -44.8827   -7.2707 C   0  0  2  0  0  0  0  0  0  0  0  0
  -21.6124  -46.3024   -7.3168 N   0  0  0  0  0  0  0  0  0  0  0  0
  -20.3682  -46.9043   -7.5733 C   0  0  0  0  0  0  0  0  0  0  0  0
  -19.2722  -46.4786   -7.1576 O   0  0  0  0  0  0  0  0  0  0  0  0
  -20.2876  -48.0811   -8.3517 O   0  0  0  0  0  0  0  0  0  0  0  0
  -19.3785  -48.1006   -9.4286 C   0  0  0  0  0  0  0  0  0  0  0  0
  -18.5462  -46.8458   -9.5386 C   0  0  0  0  0  0  0  0  0  0  0  0
  -20.0233  -48.4692  -10.7269 C   0  0  0  0  0  0  0  0  0  0  0  0
  -18.3568  -49.2208   -9.1026 C   0  0  0  0  0  0  0  0  0  0  0  0
  -20.7686  -44.1417   -7.7948 C   0  0  0  0  0  0  0  0  0  0  0  0
  -20.8277  -43.9553   -9.0794 O   0  0  0  0  0  0  0  0  0  0  0  0
  -19.6325  -43.5976   -7.1795 N   0  0  0  0  0  0  0  0  0  0  0  0
  -19.5071  -42.6824   -6.0759 C   0  0  1  0  0  0  0  0  0  0  0  0
  -19.3876  -43.5574   -4.8183 C   0  0  0  0  0  0  0  0  0  0  0  0
  -18.1995  -41.9333   -6.1203 C   0  0  0  0  0  0  0  0  0  0  0  0
  -17.1828  -42.6964   -6.1301 O   0  0  0  0  0  0  0  0  0  0  0  0
  -18.0071  -40.5682   -6.1505 N   0  0  0  0  0  0  0  0  0  0  0  0
  1  2  1  0
  2  3  1  0
  3  4  1  0
  4  5  1  0
  5  6  1  0
  6  7  2  0
  6  8  1  0
  8  9  1  1
  8 10  1  0
 10 11  1  0
 11 12  1  1
 11 13  1  0
 13 14  1  1
 14 15  1  0
 15 16  1  1
 15 17  1  0
 17 18  1  0
 18 19  1  0
 19 20  1  0
 20 21  1  0
 21 22  1  0
 22 23  1  0
 23 24  1  0
 24 25  1  1
 25 26  1  0
 26 27  2  0
 26 28  1  0
 28 29  1  0
 29 30  1  0
 29 31  1  0
 29 32  1  0
 24 33  1  0
 33 34  2  0
 33 35  1  0
 35 36  1  0
 36 37  1  1
 36 38  1  0
 38 39  2  0
 38 40  1  0
 40 13  1  0
M  END
$$$$
