
     RDKit          3D

 38 40  0  0  0  0  0  0  0  0999 V2000
  -19.9131  -37.7399   -5.6543 C   0  0  0  0  0  0  0  0  0  0  0  0
  -19.5654  -38.6018   -6.8589 C   0  0  2  0  0  0  0  0  0  0  0  0
  -20.7117  -39.4482   -7.3161 C   0  0  0  0  0  0  0  0  0  0  0  0
  -22.0477  -38.9086   -6.9018 C   0  0  0  0  0  0  0  0  0  0  0  0
  -23.1109  -39.8932   -7.3005 C   0  0  0  0  0  0  0  0  0  0  0  0
  -24.0852  -40.1025   -6.1592 C   0  0  0  0  0  0  0  0  0  0  0  0
  -24.0705  -41.5534   -5.7970 C   0  0  0  0  0  0  0  0  0  0  0  0
  -22.8746  -41.8740   -4.9661 C   0  0  0  0  0  0  0  0  0  0  0  0
  -22.7777  -43.3478   -4.6589 C   0  0  0  0  0  0  0  0  0  0  0  0
  -22.1791  -44.1159   -5.7250 N   0  0  0  0  0  0  0  0  0  0  0  0
  -21.1335  -43.8308   -6.6559 C   0  0  0  0  0  0  0  0  0  0  0  0
  -19.9003  -43.2349   -6.5018 C   0  0  0  0  0  0  0  0  0  0  0  0
  -19.0836  -43.1003   -7.6056 C   0  0  0  0  0  0  0  0  0  0  0  0
  -19.5316  -43.5783   -8.8654 C   0  0  0  0  0  0  0  0  0  0  0  0
  -20.7461  -44.1748   -9.0594 C   0  0  0  0  0  0  0  0  0  0  0  0
  -21.5241  -44.2883   -7.9433 C   0  0  0  0  0  0  0  0  0  0  0  0
  -17.7405  -42.5337   -7.7661 C   0  0  0  0  0  0  0  0  0  0  0  0
  -16.8581  -43.2266   -8.4842 O   0  0  0  0  0  0  0  0  0  0  0  0
  -17.1469  -41.3335   -7.2925 N   0  0  0  0  0  0  0  0  0  0  0  0
  -17.5636  -39.9815   -7.5309 C   0  0  1  0  0  0  0  0  0  0  0  0
  -18.3778  -39.4501   -6.4102 C   0  0  0  0  0  0  0  0  0  0  0  0
  -16.2573  -39.1900   -7.7683 C   0  0  2  0  0  0  0  0  0  0  0  0
  -16.5292  -37.8280   -7.8164 O   0  0  0  0  0  0  0  0  0  0  0  0
  -15.6106  -39.5806   -9.0427 C   0  0  0  0  0  0  0  0  0  0  0  0
  -14.5284  -40.4643   -9.0214 N   0  0  0  0  0  0  0  0  0  0  0  0
  -13.2699  -40.1148   -9.5461 C   0  0  0  0  0  0  0  0  0  0  0  0
  -12.3272  -39.6329   -8.4805 C   0  0  0  0  0  0  0  0  0  0  0  0
  -12.5810  -41.2897  -10.2411 C   0  0  0  0  0  0  0  0  0  0  0  0
  -13.3817  -39.0322  -10.5874 C   0  0  0  0  0  0  0  0  0  0  0  0
  -12.9714  -37.7449  -10.3897 C   0  0  0  0  0  0  0  0  0  0  0  0
  -13.2197  -37.0373  -11.5506 C   0  0  0  0  0  0  0  0  0  0  0  0
  -12.9107  -35.5997  -11.7312 C   0  0  0  0  0  0  0  0  0  0  0  0
  -11.6927  -35.3608  -12.5612 C   0  0  0  0  0  0  0  0  0  0  0  0
  -11.5132  -33.8749  -12.7928 C   0  0  0  0  0  0  0  0  0  0  0  0
  -10.4226  -35.8626  -11.9062 C   0  0  0  0  0  0  0  0  0  0  0  0
  -11.8698  -36.0312  -13.9218 C   0  0  0  0  0  0  0  0  0  0  0  0
  -13.7476  -37.8801  -12.3753 O   0  0  0  0  0  0  0  0  0  0  0  0
  -13.8564  -39.0767  -11.8280 N   0  0  0  0  0  0  0  0  0  0  0  0
  2  1  1  1
  2  3  1  0
  3  4  1  0
  4  5  1  0
  5  6  1  0
  6  7  1  0
  7  8  1  0
  8  9  1  0
  9 10  1  0
 10 11  1  0
 11 12  1  0
 12 13  2  0
 13 14  1  0
 14 15  2  0
 15 16  1  0
 13 17  1  0
 17 18  2  0
 17 19  1  0
 19 20  1  0
 20 21  1  1
 20 22  1  0
 22 23  1  6
 22 24  1  0
 24 25  1  0
 25 26  1  0
 26 27  1  0
 26 28  1  0
 26 29  1  0
 29 30  1  0
 30 31  2  0
 31 32  1  0
 32 33  1  0
 33 34  1  0
 33 35  1  0
 33 36  1  0
 31 37  1  0
 37 38  1  0
 16 11  2  0
 21  2  1  0
 38 29  2  0
M  END
$$$$
