
     RDKit          3D

 38 40  0  0  0  0  0  0  0  0999 V2000
  -19.8922  -38.0041   -5.0938 C   0  0  0  0  0  0  0  0  0  0  0  0
  -19.5221  -38.6942   -6.3982 C   0  0  2  0  0  0  0  0  0  0  0  0
  -20.6543  -39.4821   -6.9786 C   0  0  0  0  0  0  0  0  0  0  0  0
  -22.0004  -39.0145   -6.5126 C   0  0  0  0  0  0  0  0  0  0  0  0
  -23.0487  -39.9465   -7.0523 C   0  0  0  0  0  0  0  0  0  0  0  0
  -24.0334  -40.3150   -5.9615 C   0  0  0  0  0  0  0  0  0  0  0  0
  -24.0076  -41.8012   -5.7961 C   0  0  0  0  0  0  0  0  0  0  0  0
  -22.8177  -42.2193   -5.0006 C   0  0  0  0  0  0  0  0  0  0  0  0
  -22.7088  -43.7199   -4.8917 C   0  0  0  0  0  0  0  0  0  0  0  0
  -22.0903  -44.3334   -6.0433 N   0  0  0  0  0  0  0  0  0  0  0  0
  -21.0374  -43.9172   -6.9147 C   0  0  0  0  0  0  0  0  0  0  0  0
  -19.8124  -43.3362   -6.6671 C   0  0  0  0  0  0  0  0  0  0  0  0
  -18.9848  -43.0481   -7.7328 C   0  0  0  0  0  0  0  0  0  0  0  0
  -19.4138  -43.3574   -9.0506 C   0  0  0  0  0  0  0  0  0  0  0  0
  -20.6198  -43.9334   -9.3377 C   0  0  0  0  0  0  0  0  0  0  0  0
  -21.4089  -44.2019   -8.2565 C   0  0  0  0  0  0  0  0  0  0  0  0
  -17.6461  -42.4532   -7.7996 C   0  0  0  0  0  0  0  0  0  0  0  0
  -16.7486  -43.0361   -8.5927 O   0  0  0  0  0  0  0  0  0  0  0  0
  -17.0704  -41.3218   -7.1626 N   0  0  0  0  0  0  0  0  0  0  0  0
  -17.4985  -39.9538   -7.2235 C   0  0  1  0  0  0  0  0  0  0  0  0
  -18.3308  -39.5843   -6.0521 C   0  0  0  0  0  0  0  0  0  0  0  0
  -16.1981  -39.1261   -7.3369 C   0  0  2  0  0  0  0  0  0  0  0  0
  -16.4980  -37.7692   -7.3475 O   0  0  0  0  0  0  0  0  0  0  0  0
  -15.4566  -39.4485   -8.5783 C   0  0  0  0  0  0  0  0  0  0  0  0
  -14.1402  -39.9092   -8.4924 N   0  0  0  0  0  0  0  0  0  0  0  0
  -13.3225  -40.0462   -9.6299 C   0  0  0  0  0  0  0  0  0  0  0  0
  -12.0254  -40.7347   -9.3140 C   0  0  0  0  0  0  0  0  0  0  0  0
  -13.9932  -40.8620  -10.7355 C   0  0  0  0  0  0  0  0  0  0  0  0
  -12.9980  -38.7108  -10.2466 C   0  0  0  0  0  0  0  0  0  0  0  0
  -12.2461  -38.5602  -11.3764 C   0  0  0  0  0  0  0  0  0  0  0  0
  -12.1600  -37.2087  -11.6519 C   0  0  0  0  0  0  0  0  0  0  0  0
  -11.4241  -36.6395  -12.8049 C   0  0  0  0  0  0  0  0  0  0  0  0
  -11.8255  -35.2369  -13.1231 C   0  0  0  0  0  0  0  0  0  0  0  0
  -11.4387  -34.3211  -11.9805 C   0  0  0  0  0  0  0  0  0  0  0  0
  -11.1537  -34.6974  -14.3688 C   0  0  0  0  0  0  0  0  0  0  0  0
  -13.3424  -35.1708  -13.2866 C   0  0  0  0  0  0  0  0  0  0  0  0
  -12.8316  -36.6124  -10.7231 O   0  0  0  0  0  0  0  0  0  0  0  0
  -13.3419  -37.4829   -9.8717 N   0  0  0  0  0  0  0  0  0  0  0  0
  2  1  1  1
  2  3  1  0
  3  4  1  0
  4  5  1  0
  5  6  1  0
  6  7  1  0
  7  8  1  0
  8  9  1  0
  9 10  1  0
 10 11  1  0
 11 12  1  0
 12 13  2  0
 13 14  1  0
 14 15  2  0
 15 16  1  0
 13 17  1  0
 17 18  2  0
 17 19  1  0
 19 20  1  0
 20 21  1  1
 20 22  1  0
 22 23  1  6
 22 24  1  0
 24 25  1  0
 25 26  1  0
 26 27  1  0
 26 28  1  0
 26 29  1  0
 29 30  1  0
 30 31  2  0
 31 32  1  0
 32 33  1  0
 33 34  1  0
 33 35  1  0
 33 36  1  0
 31 37  1  0
 37 38  1  0
 16 11  2  0
 21  2  1  0
 38 29  2  0
M  END
$$$$
