
     RDKit          3D

 38 40  0  0  0  0  0  0  0  0999 V2000
  -19.7169  -37.6350   -5.6548 C   0  0  0  0  0  0  0  0  0  0  0  0
  -19.3531  -38.5307   -6.8295 C   0  0  2  0  0  0  0  0  0  0  0  0
  -20.5160  -39.3263   -7.3337 C   0  0  0  0  0  0  0  0  0  0  0  0
  -21.8423  -38.7153   -6.9941 C   0  0  0  0  0  0  0  0  0  0  0  0
  -22.9322  -39.6522   -7.4339 C   0  0  0  0  0  0  0  0  0  0  0  0
  -23.9714  -39.7962   -6.3408 C   0  0  0  0  0  0  0  0  0  0  0  0
  -24.0475  -41.2405   -5.9605 C   0  0  0  0  0  0  0  0  0  0  0  0
  -22.9120  -41.6074   -5.0663 C   0  0  0  0  0  0  0  0  0  0  0  0
  -22.9043  -43.0794   -4.7365 C   0  0  0  0  0  0  0  0  0  0  0  0
  -22.2924  -43.8919   -5.7614 N   0  0  0  0  0  0  0  0  0  0  0  0
  -21.1887  -43.6725   -6.6417 C   0  0  0  0  0  0  0  0  0  0  0  0
  -19.9366  -43.1359   -6.4328 C   0  0  0  0  0  0  0  0  0  0  0  0
  -19.0601  -43.0581   -7.4955 C   0  0  0  0  0  0  0  0  0  0  0  0
  -19.4681  -43.5320   -8.7703 C   0  0  0  0  0  0  0  0  0  0  0  0
  -20.6997  -44.0707   -9.0182 C   0  0  0  0  0  0  0  0  0  0  0  0
  -21.5371  -44.1291   -7.9415 C   0  0  0  0  0  0  0  0  0  0  0  0
  -17.6840  -42.5609   -7.5949 C   0  0  0  0  0  0  0  0  0  0  0  0
  -16.8027  -43.3070   -8.2589 O   0  0  0  0  0  0  0  0  0  0  0  0
  -17.0555  -41.3845   -7.1067 N   0  0  0  0  0  0  0  0  0  0  0  0
  -17.3917  -40.0173   -7.3824 C   0  0  1  0  0  0  0  0  0  0  0  0
  -18.2332  -39.4299   -6.3110 C   0  0  0  0  0  0  0  0  0  0  0  0
  -16.0373  -39.2948   -7.5633 C   0  0  2  0  0  0  0  0  0  0  0  0
  -16.2493  -37.9821   -7.9671 O   0  0  0  0  0  0  0  0  0  0  0  0
  -15.1968  -39.9652   -8.5826 C   0  0  0  0  0  0  0  0  0  0  0  0
  -13.8618  -39.5811   -8.7333 N   0  0  0  0  0  0  0  0  0  0  0  0
  -13.1926  -39.6787   -9.9677 C   0  0  0  0  0  0  0  0  0  0  0  0
  -11.8574  -40.3540   -9.8350 C   0  0  0  0  0  0  0  0  0  0  0  0
  -13.9871  -40.4791  -11.0002 C   0  0  0  0  0  0  0  0  0  0  0  0
  -12.9654  -38.3245  -10.5868 C   0  0  0  0  0  0  0  0  0  0  0  0
  -13.4903  -37.9424  -11.7880 C   0  0  0  0  0  0  0  0  0  0  0  0
  -13.0822  -36.6455  -12.0362 C   0  0  0  0  0  0  0  0  0  0  0  0
  -13.4488  -35.8751  -13.2474 C   0  0  0  0  0  0  0  0  0  0  0  0
  -12.2798  -35.5688  -14.1245 C   0  0  0  0  0  0  0  0  0  0  0  0
  -12.7435  -34.8113  -15.3512 C   0  0  0  0  0  0  0  0  0  0  0  0
  -11.2372  -34.7081  -13.4415 C   0  0  0  0  0  0  0  0  0  0  0  0
  -11.6429  -36.8759  -14.5912 C   0  0  0  0  0  0  0  0  0  0  0  0
  -12.3573  -36.3004  -11.0241 O   0  0  0  0  0  0  0  0  0  0  0  0
  -12.2703  -37.2814  -10.1448 N   0  0  0  0  0  0  0  0  0  0  0  0
  2  1  1  1
  2  3  1  0
  3  4  1  0
  4  5  1  0
  5  6  1  0
  6  7  1  0
  7  8  1  0
  8  9  1  0
  9 10  1  0
 10 11  1  0
 11 12  1  0
 12 13  2  0
 13 14  1  0
 14 15  2  0
 15 16  1  0
 13 17  1  0
 17 18  2  0
 17 19  1  0
 19 20  1  0
 20 21  1  1
 20 22  1  0
 22 23  1  6
 22 24  1  0
 24 25  1  0
 25 26  1  0
 26 27  1  0
 26 28  1  0
 26 29  1  0
 29 30  1  0
 30 31  2  0
 31 32  1  0
 32 33  1  0
 33 34  1  0
 33 35  1  0
 33 36  1  0
 31 37  1  0
 37 38  1  0
 16 11  2  0
 21  2  1  0
 38 29  2  0
M  END
$$$$
