
     RDKit          3D

 38 40  0  0  0  0  0  0  0  0999 V2000
  -20.1015  -38.6619   -5.3521 C   0  0  0  0  0  0  0  0  0  0  0  0
  -19.4081  -38.6542   -6.7063 C   0  0  2  0  0  0  0  0  0  0  0  0
  -20.3651  -38.7939   -7.8482 C   0  0  0  0  0  0  0  0  0  0  0  0
  -21.7611  -38.3678   -7.5056 C   0  0  0  0  0  0  0  0  0  0  0  0
  -22.6575  -38.6657   -8.6746 C   0  0  0  0  0  0  0  0  0  0  0  0
  -23.9338  -39.3297   -8.1998 C   0  0  0  0  0  0  0  0  0  0  0  0
  -24.0374  -40.6649   -8.8655 C   0  0  0  0  0  0  0  0  0  0  0  0
  -23.1527  -41.6571   -8.1901 C   0  0  0  0  0  0  0  0  0  0  0  0
  -23.1612  -42.9925   -8.8917 C   0  0  0  0  0  0  0  0  0  0  0  0
  -22.2704  -43.0478  -10.0268 N   0  0  0  0  0  0  0  0  0  0  0  0
  -20.9897  -42.4687  -10.2828 C   0  0  0  0  0  0  0  0  0  0  0  0
  -19.8590  -42.3526   -9.5033 C   0  0  0  0  0  0  0  0  0  0  0  0
  -18.7444  -41.7373  -10.0351 C   0  0  0  0  0  0  0  0  0  0  0  0
  -18.7903  -41.2432  -11.3655 C   0  0  0  0  0  0  0  0  0  0  0  0
  -19.8911  -41.3390  -12.1701 C   0  0  0  0  0  0  0  0  0  0  0  0
  -20.9724  -41.9534  -11.6070 C   0  0  0  0  0  0  0  0  0  0  0  0
  -17.4133  -41.4732   -9.4790 C   0  0  0  0  0  0  0  0  0  0  0  0
  -16.3578  -41.7403  -10.2463 O   0  0  0  0  0  0  0  0  0  0  0  0
  -16.9860  -40.9624   -8.2245 N   0  0  0  0  0  0  0  0  0  0  0  0
  -17.3036  -39.6985   -7.6245 C   0  0  1  0  0  0  0  0  0  0  0  0
  -18.4176  -39.8149   -6.6515 C   0  0  0  0  0  0  0  0  0  0  0  0
  -15.9831  -39.2079   -6.9884 C   0  0  2  0  0  0  0  0  0  0  0  0
  -15.9932  -37.8223   -6.8819 O   0  0  0  0  0  0  0  0  0  0  0  0
  -14.8096  -39.6035   -7.8015 C   0  0  0  0  0  0  0  0  0  0  0  0
  -14.1810  -40.8262   -7.5515 N   0  0  0  0  0  0  0  0  0  0  0  0
  -13.7497  -41.6695   -8.5927 C   0  0  0  0  0  0  0  0  0  0  0  0
  -12.8506  -42.7657   -8.0965 C   0  0  0  0  0  0  0  0  0  0  0  0
  -14.9145  -42.3506   -9.3120 C   0  0  0  0  0  0  0  0  0  0  0  0
  -13.0034  -40.9058   -9.6551 C   0  0  0  0  0  0  0  0  0  0  0  0
  -12.9901  -41.2585  -10.9741 C   0  0  0  0  0  0  0  0  0  0  0  0
  -12.2158  -40.3362  -11.6523 C   0  0  0  0  0  0  0  0  0  0  0  0
  -11.9590  -40.3772  -13.1108 C   0  0  0  0  0  0  0  0  0  0  0  0
  -10.9681  -41.4230  -13.5033 C   0  0  0  0  0  0  0  0  0  0  0  0
   -9.9762  -40.8447  -14.4909 C   0  0  0  0  0  0  0  0  0  0  0  0
  -10.1678  -41.9497  -12.3302 C   0  0  0  0  0  0  0  0  0  0  0  0
  -11.6969  -42.5767  -14.1888 C   0  0  0  0  0  0  0  0  0  0  0  0
  -11.8046  -39.4940  -10.7631 O   0  0  0  0  0  0  0  0  0  0  0  0
  -12.2584  -39.8088   -9.5639 N   0  0  0  0  0  0  0  0  0  0  0  0
  2  1  1  1
  2  3  1  0
  3  4  1  0
  4  5  1  0
  5  6  1  0
  6  7  1  0
  7  8  1  0
  8  9  1  0
  9 10  1  0
 10 11  1  0
 11 12  1  0
 12 13  2  0
 13 14  1  0
 14 15  2  0
 15 16  1  0
 13 17  1  0
 17 18  2  0
 17 19  1  0
 19 20  1  0
 20 21  1  1
 20 22  1  0
 22 23  1  6
 22 24  1  0
 24 25  1  0
 25 26  1  0
 26 27  1  0
 26 28  1  0
 26 29  1  0
 29 30  1  0
 30 31  2  0
 31 32  1  0
 32 33  1  0
 33 34  1  0
 33 35  1  0
 33 36  1  0
 31 37  1  0
 37 38  1  0
 16 11  2  0
 21  2  1  0
 38 29  2  0
M  END
$$$$
