
     RDKit          3D

 38 40  0  0  0  0  0  0  0  0999 V2000
  -20.9154  -37.2659   -6.1521 C   0  0  0  0  0  0  0  0  0  0  0  0
  -20.2222  -38.1947   -7.1376 C   0  0  2  0  0  0  0  0  0  0  0  0
  -21.0205  -39.4254   -7.4339 C   0  0  0  0  0  0  0  0  0  0  0  0
  -22.4876  -39.2548   -7.1769 C   0  0  0  0  0  0  0  0  0  0  0  0
  -23.1711  -40.5772   -7.3846 C   0  0  0  0  0  0  0  0  0  0  0  0
  -24.1367  -40.8514   -6.2498 C   0  0  0  0  0  0  0  0  0  0  0  0
  -23.7246  -42.1277   -5.5882 C   0  0  0  0  0  0  0  0  0  0  0  0
  -22.5661  -41.8961   -4.6784 C   0  0  0  0  0  0  0  0  0  0  0  0
  -22.0640  -43.1789   -4.0638 C   0  0  0  0  0  0  0  0  0  0  0  0
  -21.1723  -43.9162   -4.9276 N   0  0  0  0  0  0  0  0  0  0  0  0
  -20.1800  -43.5086   -5.8712 C   0  0  0  0  0  0  0  0  0  0  0  0
  -19.1980  -42.5432   -5.8159 C   0  0  0  0  0  0  0  0  0  0  0  0
  -18.3633  -42.3799   -6.9023 C   0  0  0  0  0  0  0  0  0  0  0  0
  -18.5357  -43.2076   -8.0431 C   0  0  0  0  0  0  0  0  0  0  0  0
  -19.4963  -44.1755   -8.1368 C   0  0  0  0  0  0  0  0  0  0  0  0
  -20.3015  -44.3048   -7.0419 C   0  0  0  0  0  0  0  0  0  0  0  0
  -17.2400  -41.4689   -7.1454 C   0  0  0  0  0  0  0  0  0  0  0  0
  -16.1317  -41.9811   -7.6781 O   0  0  0  0  0  0  0  0  0  0  0  0
  -17.0737  -40.0762   -6.9220 N   0  0  0  0  0  0  0  0  0  0  0  0
  -17.8498  -38.9921   -7.4517 C   0  0  1  0  0  0  0  0  0  0  0  0
  -18.8811  -38.5312   -6.4898 C   0  0  0  0  0  0  0  0  0  0  0  0
  -16.8215  -37.8980   -7.8185 C   0  0  2  0  0  0  0  0  0  0  0  0
  -17.3538  -37.0494   -8.7818 O   0  0  0  0  0  0  0  0  0  0  0  0
  -15.5722  -38.4860   -8.3555 C   0  0  0  0  0  0  0  0  0  0  0  0
  -15.6415  -39.4069   -9.4041 N   0  0  0  0  0  0  0  0  0  0  0  0
  -14.5774  -39.5902  -10.3071 C   0  0  0  0  0  0  0  0  0  0  0  0
  -15.0275  -39.4990  -11.7373 C   0  0  0  0  0  0  0  0  0  0  0  0
  -13.4743  -38.5466  -10.1281 C   0  0  0  0  0  0  0  0  0  0  0  0
  -13.9101  -40.9272  -10.1175 C   0  0  0  0  0  0  0  0  0  0  0  0
  -13.6553  -41.7987  -11.1374 C   0  0  0  0  0  0  0  0  0  0  0  0
  -13.0341  -42.9104  -10.6005 C   0  0  0  0  0  0  0  0  0  0  0  0
  -12.5971  -44.0834  -11.3928 C   0  0  0  0  0  0  0  0  0  0  0  0
  -11.1774  -43.9899  -11.8459 C   0  0  0  0  0  0  0  0  0  0  0  0
  -10.7461  -45.3071  -12.4566 C   0  0  0  0  0  0  0  0  0  0  0  0
  -10.9615  -42.9228  -12.8989 C   0  0  0  0  0  0  0  0  0  0  0  0
  -10.2804  -43.7134  -10.6413 C   0  0  0  0  0  0  0  0  0  0  0  0
  -12.9371  -42.6862   -9.3319 O   0  0  0  0  0  0  0  0  0  0  0  0
  -13.4512  -41.5119   -9.0157 N   0  0  0  0  0  0  0  0  0  0  0  0
  2  1  1  1
  2  3  1  0
  3  4  1  0
  4  5  1  0
  5  6  1  0
  6  7  1  0
  7  8  1  0
  8  9  1  0
  9 10  1  0
 10 11  1  0
 11 12  1  0
 12 13  2  0
 13 14  1  0
 14 15  2  0
 15 16  1  0
 13 17  1  0
 17 18  2  0
 17 19  1  0
 19 20  1  0
 20 21  1  1
 20 22  1  0
 22 23  1  6
 22 24  1  0
 24 25  1  0
 25 26  1  0
 26 27  1  0
 26 28  1  0
 26 29  1  0
 29 30  1  0
 30 31  2  0
 31 32  1  0
 32 33  1  0
 33 34  1  0
 33 35  1  0
 33 36  1  0
 31 37  1  0
 37 38  1  0
 16 11  2  0
 21  2  1  0
 38 29  2  0
M  END
$$$$
