
     RDKit          3D

 38 40  0  0  0  0  0  0  0  0999 V2000
  -19.2699  -38.4541   -4.9511 C   0  0  0  0  0  0  0  0  0  0  0  0
  -19.2631  -39.0525   -6.3499 C   0  0  2  0  0  0  0  0  0  0  0  0
  -20.4170  -39.9742   -6.5915 C   0  0  0  0  0  0  0  0  0  0  0  0
  -21.5845  -39.7094   -5.6890 C   0  0  0  0  0  0  0  0  0  0  0  0
  -22.6289  -40.7633   -5.9291 C   0  0  0  0  0  0  0  0  0  0  0  0
  -23.1518  -41.2924   -4.6092 C   0  0  0  0  0  0  0  0  0  0  0  0
  -22.8918  -42.7644   -4.5639 C   0  0  0  0  0  0  0  0  0  0  0  0
  -21.4660  -43.0343   -4.2207 C   0  0  0  0  0  0  0  0  0  0  0  0
  -21.1446  -44.5078   -4.2564 C   0  0  0  0  0  0  0  0  0  0  0  0
  -20.8645  -44.9999   -5.5847 N   0  0  0  0  0  0  0  0  0  0  0  0
  -20.2121  -44.4199   -6.7156 C   0  0  0  0  0  0  0  0  0  0  0  0
  -19.0541  -43.6816   -6.8324 C   0  0  0  0  0  0  0  0  0  0  0  0
  -18.6605  -43.2545   -8.0839 C   0  0  0  0  0  0  0  0  0  0  0  0
  -19.4539  -43.5861   -9.2139 C   0  0  0  0  0  0  0  0  0  0  0  0
  -20.6074  -44.3158   -9.1401 C   0  0  0  0  0  0  0  0  0  0  0  0
  -20.9623  -44.7186   -7.8849 C   0  0  0  0  0  0  0  0  0  0  0  0
  -17.5000  -42.4786   -8.5331 C   0  0  0  0  0  0  0  0  0  0  0  0
  -16.8453  -42.9112   -9.6096 O   0  0  0  0  0  0  0  0  0  0  0  0
  -16.8914  -41.2953   -8.0366 N   0  0  0  0  0  0  0  0  0  0  0  0
  -17.4802  -39.9986   -7.8629 C   0  0  1  0  0  0  0  0  0  0  0  0
  -17.9244  -39.7779   -6.4646 C   0  0  0  0  0  0  0  0  0  0  0  0
  -16.3994  -38.9963   -8.3279 C   0  0  2  0  0  0  0  0  0  0  0  0
  -16.6251  -37.7524   -7.7508 O   0  0  0  0  0  0  0  0  0  0  0  0
  -16.4074  -38.8344   -9.8005 C   0  0  0  0  0  0  0  0  0  0  0  0
  -15.4076  -39.4425  -10.5642 N   0  0  0  0  0  0  0  0  0  0  0  0
  -15.1779  -39.0910  -11.9077 C   0  0  0  0  0  0  0  0  0  0  0  0
  -14.8413  -40.2849  -12.7547 C   0  0  0  0  0  0  0  0  0  0  0  0
  -16.3942  -38.4257  -12.5526 C   0  0  0  0  0  0  0  0  0  0  0  0
  -14.0517  -38.0994  -12.0393 C   0  0  0  0  0  0  0  0  0  0  0  0
  -12.9160  -38.3334  -12.7604 C   0  0  0  0  0  0  0  0  0  0  0  0
  -12.1135  -37.2124  -12.6638 C   0  0  0  0  0  0  0  0  0  0  0  0
  -10.7890  -37.0786  -13.3139 C   0  0  0  0  0  0  0  0  0  0  0  0
  -10.1173  -35.7788  -13.0157 C   0  0  0  0  0  0  0  0  0  0  0  0
   -8.6329  -36.0027  -12.8152 C   0  0  0  0  0  0  0  0  0  0  0  0
  -10.2646  -34.7667  -14.1330 C   0  0  0  0  0  0  0  0  0  0  0  0
  -10.6856  -35.2024  -11.7208 C   0  0  0  0  0  0  0  0  0  0  0  0
  -12.7594  -36.3748  -11.9220 O   0  0  0  0  0  0  0  0  0  0  0  0
  -13.9177  -36.8768  -11.5353 N   0  0  0  0  0  0  0  0  0  0  0  0
  2  1  1  1
  2  3  1  0
  3  4  1  0
  4  5  1  0
  5  6  1  0
  6  7  1  0
  7  8  1  0
  8  9  1  0
  9 10  1  0
 10 11  1  0
 11 12  1  0
 12 13  2  0
 13 14  1  0
 14 15  2  0
 15 16  1  0
 13 17  1  0
 17 18  2  0
 17 19  1  0
 19 20  1  0
 20 21  1  1
 20 22  1  0
 22 23  1  1
 22 24  1  0
 24 25  1  0
 25 26  1  0
 26 27  1  0
 26 28  1  0
 26 29  1  0
 29 30  1  0
 30 31  2  0
 31 32  1  0
 32 33  1  0
 33 34  1  0
 33 35  1  0
 33 36  1  0
 31 37  1  0
 37 38  1  0
 16 11  2  0
 21  2  1  0
 38 29  2  0
M  END
$$$$
