
     RDKit          3D

 38 40  0  0  0  0  0  0  0  0999 V2000
  -20.0537  -37.5686   -5.6905 C   0  0  0  0  0  0  0  0  0  0  0  0
  -19.4451  -38.4495   -6.7713 C   0  0  2  0  0  0  0  0  0  0  0  0
  -20.4284  -39.4158   -7.3533 C   0  0  0  0  0  0  0  0  0  0  0  0
  -21.8536  -38.9805   -7.1889 C   0  0  0  0  0  0  0  0  0  0  0  0
  -22.7536  -40.0741   -7.6918 C   0  0  0  0  0  0  0  0  0  0  0  0
  -23.8806  -40.3181   -6.7091 C   0  0  0  0  0  0  0  0  0  0  0  0
  -23.8069  -41.7438   -6.2635 C   0  0  0  0  0  0  0  0  0  0  0  0
  -22.7404  -41.9172   -5.2359 C   0  0  0  0  0  0  0  0  0  0  0  0
  -22.5749  -43.3606   -4.8301 C   0  0  0  0  0  0  0  0  0  0  0  0
  -21.7497  -44.1194   -5.7402 N   0  0  0  0  0  0  0  0  0  0  0  0
  -20.5931  -43.7840   -6.5088 C   0  0  0  0  0  0  0  0  0  0  0  0
  -19.4544  -43.0729   -6.1968 C   0  0  0  0  0  0  0  0  0  0  0  0
  -18.4823  -42.9156   -7.1632 C   0  0  0  0  0  0  0  0  0  0  0  0
  -18.6783  -43.4889   -8.4474 C   0  0  0  0  0  0  0  0  0  0  0  0
  -19.7921  -44.2007   -8.7957 C   0  0  0  0  0  0  0  0  0  0  0  0
  -20.7298  -44.3329   -7.8123 C   0  0  0  0  0  0  0  0  0  0  0  0
  -17.1818  -42.2382   -7.1421 C   0  0  0  0  0  0  0  0  0  0  0  0
  -16.1405  -42.8807   -7.6687 O   0  0  0  0  0  0  0  0  0  0  0  0
  -16.7734  -40.9690   -6.6526 N   0  0  0  0  0  0  0  0  0  0  0  0
  -17.2545  -39.6723   -7.0340 C   0  0  1  0  0  0  0  0  0  0  0  0
  -18.2813  -39.1661   -6.0903 C   0  0  0  0  0  0  0  0  0  0  0  0
  -15.9961  -38.7780   -7.1081 C   0  0  2  0  0  0  0  0  0  0  0  0
  -16.1559  -37.8138   -8.0960 O   0  0  0  0  0  0  0  0  0  0  0  0
  -14.7850  -39.5708   -7.4233 C   0  0  0  0  0  0  0  0  0  0  0  0
  -13.8473  -39.0634   -8.3266 N   0  0  0  0  0  0  0  0  0  0  0  0
  -13.5567  -39.7110   -9.5421 C   0  0  0  0  0  0  0  0  0  0  0  0
  -12.5002  -40.7667   -9.3818 C   0  0  0  0  0  0  0  0  0  0  0  0
  -14.7809  -40.4043  -10.1408 C   0  0  0  0  0  0  0  0  0  0  0  0
  -13.0831  -38.7395  -10.5913 C   0  0  0  0  0  0  0  0  0  0  0  0
  -13.9227  -37.9960  -11.3702 C   0  0  0  0  0  0  0  0  0  0  0  0
  -13.1465  -37.2188  -12.2090 C   0  0  0  0  0  0  0  0  0  0  0  0
  -13.6931  -36.2715  -13.2083 C   0  0  0  0  0  0  0  0  0  0  0  0
  -13.3245  -34.8508  -12.9336 C   0  0  0  0  0  0  0  0  0  0  0  0
  -13.9473  -33.9482  -13.9781 C   0  0  0  0  0  0  0  0  0  0  0  0
  -13.8091  -34.3644  -11.5835 C   0  0  0  0  0  0  0  0  0  0  0  0
  -11.8078  -34.6968  -13.0222 C   0  0  0  0  0  0  0  0  0  0  0  0
  -11.9190  -37.5036  -11.9238 O   0  0  0  0  0  0  0  0  0  0  0  0
  -11.8512  -38.4071  -10.9634 N   0  0  0  0  0  0  0  0  0  0  0  0
  2  1  1  1
  2  3  1  0
  3  4  1  0
  4  5  1  0
  5  6  1  0
  6  7  1  0
  7  8  1  0
  8  9  1  0
  9 10  1  0
 10 11  1  0
 11 12  1  0
 12 13  2  0
 13 14  1  0
 14 15  2  0
 15 16  1  0
 13 17  1  0
 17 18  2  0
 17 19  1  0
 19 20  1  0
 20 21  1  1
 20 22  1  0
 22 23  1  6
 22 24  1  0
 24 25  1  0
 25 26  1  0
 26 27  1  0
 26 28  1  0
 26 29  1  0
 29 30  1  0
 30 31  2  0
 31 32  1  0
 32 33  1  0
 33 34  1  0
 33 35  1  0
 33 36  1  0
 31 37  1  0
 37 38  1  0
 16 11  2  0
 21  2  1  0
 38 29  2  0
M  END
$$$$
