
     RDKit          3D

 38 40  0  0  0  0  0  0  0  0999 V2000
  -20.2817  -37.7933   -6.0602 C   0  0  0  0  0  0  0  0  0  0  0  0
  -19.5910  -38.4057   -7.2695 C   0  0  2  0  0  0  0  0  0  0  0  0
  -20.3445  -39.5650   -7.8420 C   0  0  0  0  0  0  0  0  0  0  0  0
  -21.8052  -39.5456   -7.5046 C   0  0  0  0  0  0  0  0  0  0  0  0
  -22.4360  -40.8095   -8.0182 C   0  0  0  0  0  0  0  0  0  0  0  0
  -23.3371  -41.4123   -6.9599 C   0  0  0  0  0  0  0  0  0  0  0  0
  -22.8384  -42.7890   -6.6554 C   0  0  0  0  0  0  0  0  0  0  0  0
  -21.6526  -42.7291   -5.7532 C   0  0  0  0  0  0  0  0  0  0  0  0
  -21.0659  -44.0953   -5.4985 C   0  0  0  0  0  0  0  0  0  0  0  0
  -20.1804  -44.5420   -6.5480 N   0  0  0  0  0  0  0  0  0  0  0  0
  -19.2504  -43.8567   -7.3885 C   0  0  0  0  0  0  0  0  0  0  0  0
  -18.3120  -42.8832   -7.1217 C   0  0  0  0  0  0  0  0  0  0  0  0
  -17.5343  -42.4068   -8.1572 C   0  0  0  0  0  0  0  0  0  0  0  0
  -17.7190  -42.9304   -9.4641 C   0  0  0  0  0  0  0  0  0  0  0  0
  -18.6376  -43.8955   -9.7693 C   0  0  0  0  0  0  0  0  0  0  0  0
  -19.3869  -44.3394   -8.7180 C   0  0  0  0  0  0  0  0  0  0  0  0
  -16.4657  -41.4033   -8.1972 C   0  0  0  0  0  0  0  0  0  0  0  0
  -15.3597  -41.7036   -8.8763 O   0  0  0  0  0  0  0  0  0  0  0  0
  -16.3534  -40.1041   -7.6345 N   0  0  0  0  0  0  0  0  0  0  0  0
  -17.2008  -38.9664   -7.8486 C   0  0  1  0  0  0  0  0  0  0  0  0
  -18.2087  -38.8191   -6.7699 C   0  0  0  0  0  0  0  0  0  0  0  0
  -16.2407  -37.7602   -7.9591 C   0  0  2  0  0  0  0  0  0  0  0  0
  -16.9565  -36.5728   -7.8632 O   0  0  0  0  0  0  0  0  0  0  0  0
  -15.5136  -37.7621   -9.2499 C   0  0  0  0  0  0  0  0  0  0  0  0
  -14.3388  -37.0165   -9.3780 N   0  0  0  0  0  0  0  0  0  0  0  0
  -13.6639  -36.8937  -10.6071 C   0  0  0  0  0  0  0  0  0  0  0  0
  -14.4432  -36.0810  -11.6013 C   0  0  0  0  0  0  0  0  0  0  0  0
  -12.3016  -36.2154  -10.4592 C   0  0  0  0  0  0  0  0  0  0  0  0
  -13.3860  -38.2383  -11.2267 C   0  0  0  0  0  0  0  0  0  0  0  0
  -12.4368  -38.4497  -12.1852 C   0  0  0  0  0  0  0  0  0  0  0  0
  -12.4564  -39.7921  -12.5130 C   0  0  0  0  0  0  0  0  0  0  0  0
  -11.5669  -40.4159  -13.5203 C   0  0  0  0  0  0  0  0  0  0  0  0
  -10.3379  -41.0196  -12.9247 C   0  0  0  0  0  0  0  0  0  0  0  0
   -9.2542  -39.9680  -12.8092 C   0  0  0  0  0  0  0  0  0  0  0  0
  -10.5657  -41.5741  -11.5337 C   0  0  0  0  0  0  0  0  0  0  0  0
   -9.8238  -42.1266  -13.8424 C   0  0  0  0  0  0  0  0  0  0  0  0
  -13.3741  -40.3253  -11.7764 O   0  0  0  0  0  0  0  0  0  0  0  0
  -13.9450  -39.4227  -11.0001 N   0  0  0  0  0  0  0  0  0  0  0  0
  2  1  1  1
  2  3  1  0
  3  4  1  0
  4  5  1  0
  5  6  1  0
  6  7  1  0
  7  8  1  0
  8  9  1  0
  9 10  1  0
 10 11  1  0
 11 12  1  0
 12 13  2  0
 13 14  1  0
 14 15  2  0
 15 16  1  0
 13 17  1  0
 17 18  2  0
 17 19  1  0
 19 20  1  0
 20 21  1  1
 20 22  1  0
 22 23  1  6
 22 24  1  0
 24 25  1  0
 25 26  1  0
 26 27  1  0
 26 28  1  0
 26 29  1  0
 29 30  1  0
 30 31  2  0
 31 32  1  0
 32 33  1  0
 33 34  1  0
 33 35  1  0
 33 36  1  0
 31 37  1  0
 37 38  1  0
 16 11  2  0
 21  2  1  0
 38 29  2  0
M  END
$$$$
