
     RDKit          3D

 38 40  0  0  0  0  0  0  0  0999 V2000
  -19.6089  -38.0667   -5.1712 C   0  0  0  0  0  0  0  0  0  0  0  0
  -19.2624  -38.8782   -6.4105 C   0  0  2  0  0  0  0  0  0  0  0  0
  -20.4265  -39.6571   -6.9375 C   0  0  0  0  0  0  0  0  0  0  0  0
  -21.7522  -39.0901   -6.5267 C   0  0  0  0  0  0  0  0  0  0  0  0
  -22.8397  -40.0131   -7.0004 C   0  0  0  0  0  0  0  0  0  0  0  0
  -23.8490  -40.2441   -5.8944 C   0  0  0  0  0  0  0  0  0  0  0  0
  -23.8955  -41.7111   -5.6078 C   0  0  0  0  0  0  0  0  0  0  0  0
  -22.7330  -42.1179   -4.7673 C   0  0  0  0  0  0  0  0  0  0  0  0
  -22.6966  -43.6080   -4.5349 C   0  0  0  0  0  0  0  0  0  0  0  0
  -22.0994  -44.3423   -5.6254 N   0  0  0  0  0  0  0  0  0  0  0  0
  -21.0214  -44.0491   -6.5158 C   0  0  0  0  0  0  0  0  0  0  0  0
  -19.7719  -43.5079   -6.3025 C   0  0  0  0  0  0  0  0  0  0  0  0
  -18.9235  -43.3475   -7.3787 C   0  0  0  0  0  0  0  0  0  0  0  0
  -19.3568  -43.7435   -8.6716 C   0  0  0  0  0  0  0  0  0  0  0  0
  -20.5867  -44.2839   -8.9244 C   0  0  0  0  0  0  0  0  0  0  0  0
  -21.3959  -44.4253   -7.8339 C   0  0  0  0  0  0  0  0  0  0  0  0
  -17.5574  -42.8236   -7.4784 C   0  0  0  0  0  0  0  0  0  0  0  0
  -16.6828  -43.5112   -8.2110 O   0  0  0  0  0  0  0  0  0  0  0  0
  -16.9332  -41.6720   -6.9295 N   0  0  0  0  0  0  0  0  0  0  0  0
  -17.2951  -40.2950   -7.1069 C   0  0  1  0  0  0  0  0  0  0  0  0
  -18.1175  -39.7918   -5.9793 C   0  0  0  0  0  0  0  0  0  0  0  0
  -15.9558  -39.5414   -7.2727 C   0  0  2  0  0  0  0  0  0  0  0  0
  -16.1845  -38.1716   -7.3230 O   0  0  0  0  0  0  0  0  0  0  0  0
  -15.2581  -39.9427   -8.5164 C   0  0  0  0  0  0  0  0  0  0  0  0
  -13.8816  -39.7312   -8.6310 N   0  0  0  0  0  0  0  0  0  0  0  0
  -13.1968  -39.9198   -9.8463 C   0  0  0  0  0  0  0  0  0  0  0  0
  -11.7092  -39.9937   -9.6513 C   0  0  0  0  0  0  0  0  0  0  0  0
  -13.6101  -41.2104  -10.5544 C   0  0  0  0  0  0  0  0  0  0  0  0
  -13.4797  -38.8087  -10.8232 C   0  0  0  0  0  0  0  0  0  0  0  0
  -12.5693  -38.3463  -11.7297 C   0  0  0  0  0  0  0  0  0  0  0  0
  -13.1705  -37.3374  -12.4582 C   0  0  0  0  0  0  0  0  0  0  0  0
  -12.5020  -36.5828  -13.5438 C   0  0  0  0  0  0  0  0  0  0  0  0
  -11.9070  -35.2934  -13.0823 C   0  0  0  0  0  0  0  0  0  0  0  0
  -12.9987  -34.3823  -12.5610 C   0  0  0  0  0  0  0  0  0  0  0  0
  -10.9066  -35.4719  -11.9591 C   0  0  0  0  0  0  0  0  0  0  0  0
  -11.2358  -34.5960  -14.2634 C   0  0  0  0  0  0  0  0  0  0  0  0
  -14.3699  -37.2270  -11.9909 O   0  0  0  0  0  0  0  0  0  0  0  0
  -14.5818  -38.0912  -11.0155 N   0  0  0  0  0  0  0  0  0  0  0  0
  2  1  1  1
  2  3  1  0
  3  4  1  0
  4  5  1  0
  5  6  1  0
  6  7  1  0
  7  8  1  0
  8  9  1  0
  9 10  1  0
 10 11  1  0
 11 12  1  0
 12 13  2  0
 13 14  1  0
 14 15  2  0
 15 16  1  0
 13 17  1  0
 17 18  2  0
 17 19  1  0
 19 20  1  0
 20 21  1  1
 20 22  1  0
 22 23  1  6
 22 24  1  0
 24 25  1  0
 25 26  1  0
 26 27  1  0
 26 28  1  0
 26 29  1  0
 29 30  1  0
 30 31  2  0
 31 32  1  0
 32 33  1  0
 33 34  1  0
 33 35  1  0
 33 36  1  0
 31 37  1  0
 37 38  1  0
 16 11  2  0
 21  2  1  0
 38 29  2  0
M  END
$$$$
