
     RDKit          3D

 38 40  0  0  0  0  0  0  0  0999 V2000
  -19.4567  -37.9489   -5.1969 C   0  0  0  0  0  0  0  0  0  0  0  0
  -19.0676  -38.6951   -6.4643 C   0  0  2  0  0  0  0  0  0  0  0  0
  -20.2126  -39.4438   -7.0707 C   0  0  0  0  0  0  0  0  0  0  0  0
  -21.5519  -38.8972   -6.6764 C   0  0  0  0  0  0  0  0  0  0  0  0
  -22.6221  -39.7927   -7.2346 C   0  0  0  0  0  0  0  0  0  0  0  0
  -23.6687  -40.0796   -6.1774 C   0  0  0  0  0  0  0  0  0  0  0  0
  -23.7244  -41.5596   -5.9695 C   0  0  0  0  0  0  0  0  0  0  0  0
  -22.5911  -42.0113   -5.1120 C   0  0  0  0  0  0  0  0  0  0  0  0
  -22.5622  -43.5115   -4.9567 C   0  0  0  0  0  0  0  0  0  0  0  0
  -21.9278  -44.1888   -6.0629 N   0  0  0  0  0  0  0  0  0  0  0  0
  -20.8200  -43.8510   -6.8994 C   0  0  0  0  0  0  0  0  0  0  0  0
  -19.5787  -43.3234   -6.6155 C   0  0  0  0  0  0  0  0  0  0  0  0
  -18.6940  -43.1083   -7.6522 C   0  0  0  0  0  0  0  0  0  0  0  0
  -19.0827  -43.4357   -8.9781 C   0  0  0  0  0  0  0  0  0  0  0  0
  -20.3029  -43.9605   -9.3006 C   0  0  0  0  0  0  0  0  0  0  0  0
  -21.1489  -44.1574   -8.2474 C   0  0  0  0  0  0  0  0  0  0  0  0
  -17.3255  -42.5818   -7.6777 C   0  0  0  0  0  0  0  0  0  0  0  0
  -16.4261  -43.2315   -8.4148 O   0  0  0  0  0  0  0  0  0  0  0  0
  -16.7209  -41.4613   -7.0484 N   0  0  0  0  0  0  0  0  0  0  0  0
  -17.0770  -40.0765   -7.1659 C   0  0  1  0  0  0  0  0  0  0  0  0
  -17.9378  -39.6316   -6.0424 C   0  0  0  0  0  0  0  0  0  0  0  0
  -15.7332  -39.3171   -7.2462 C   0  0  2  0  0  0  0  0  0  0  0  0
  -15.9251  -37.9772   -6.9317 O   0  0  0  0  0  0  0  0  0  0  0  0
  -15.1455  -39.3968   -8.6038 C   0  0  0  0  0  0  0  0  0  0  0  0
  -14.3518  -40.4949   -8.9457 N   0  0  0  0  0  0  0  0  0  0  0  0
  -13.7010  -40.5858  -10.1905 C   0  0  0  0  0  0  0  0  0  0  0  0
  -12.3465  -41.2248  -10.0749 C   0  0  0  0  0  0  0  0  0  0  0  0
  -14.4915  -41.4157  -11.2026 C   0  0  0  0  0  0  0  0  0  0  0  0
  -13.5200  -39.2316  -10.8246 C   0  0  0  0  0  0  0  0  0  0  0  0
  -13.9234  -38.9285  -12.0934 C   0  0  0  0  0  0  0  0  0  0  0  0
  -13.6046  -37.6058  -12.3356 C   0  0  0  0  0  0  0  0  0  0  0  0
  -13.8848  -36.9017  -13.6086 C   0  0  0  0  0  0  0  0  0  0  0  0
  -12.6510  -36.4132  -14.2932 C   0  0  0  0  0  0  0  0  0  0  0  0
  -11.9562  -35.3844  -13.4256 C   0  0  0  0  0  0  0  0  0  0  0  0
  -11.6473  -37.5154  -14.5614 C   0  0  0  0  0  0  0  0  0  0  0  0
  -13.0369  -35.7374  -15.6072 C   0  0  0  0  0  0  0  0  0  0  0  0
  -13.0446  -37.1709  -11.2556 O   0  0  0  0  0  0  0  0  0  0  0  0
  -12.9806  -38.1184  -10.3383 N   0  0  0  0  0  0  0  0  0  0  0  0
  2  1  1  1
  2  3  1  0
  3  4  1  0
  4  5  1  0
  5  6  1  0
  6  7  1  0
  7  8  1  0
  8  9  1  0
  9 10  1  0
 10 11  1  0
 11 12  1  0
 12 13  2  0
 13 14  1  0
 14 15  2  0
 15 16  1  0
 13 17  1  0
 17 18  2  0
 17 19  1  0
 19 20  1  0
 20 21  1  1
 20 22  1  0
 22 23  1  6
 22 24  1  0
 24 25  1  0
 25 26  1  0
 26 27  1  0
 26 28  1  0
 26 29  1  0
 29 30  1  0
 30 31  2  0
 31 32  1  0
 32 33  1  0
 33 34  1  0
 33 35  1  0
 33 36  1  0
 31 37  1  0
 37 38  1  0
 16 11  2  0
 21  2  1  0
 38 29  2  0
M  END
$$$$
