
     RDKit          3D

 38 40  0  0  0  0  0  0  0  0999 V2000
  -19.5488  -37.3525   -6.3031 C   0  0  0  0  0  0  0  0  0  0  0  0
  -19.1478  -38.3537   -7.3762 C   0  0  2  0  0  0  0  0  0  0  0  0
  -20.2757  -39.2481   -7.7849 C   0  0  0  0  0  0  0  0  0  0  0  0
  -21.6269  -38.6613   -7.5060 C   0  0  0  0  0  0  0  0  0  0  0  0
  -22.6757  -39.6860   -7.8359 C   0  0  0  0  0  0  0  0  0  0  0  0
  -23.7068  -39.7552   -6.7280 C   0  0  0  0  0  0  0  0  0  0  0  0
  -23.7202  -41.1518   -6.1934 C   0  0  0  0  0  0  0  0  0  0  0  0
  -22.5692  -41.3709   -5.2710 C   0  0  0  0  0  0  0  0  0  0  0  0
  -22.4978  -42.7969   -4.7841 C   0  0  0  0  0  0  0  0  0  0  0  0
  -21.8523  -43.6885   -5.7186 N   0  0  0  0  0  0  0  0  0  0  0  0
  -20.7599  -43.5188   -6.6235 C   0  0  0  0  0  0  0  0  0  0  0  0
  -19.5319  -42.9096   -6.4808 C   0  0  0  0  0  0  0  0  0  0  0  0
  -18.6604  -42.9099   -7.5505 C   0  0  0  0  0  0  0  0  0  0  0  0
  -19.0487  -43.5360   -8.7644 C   0  0  0  0  0  0  0  0  0  0  0  0
  -20.2562  -44.1505   -8.9457 C   0  0  0  0  0  0  0  0  0  0  0  0
  -21.0893  -44.1278   -7.8644 C   0  0  0  0  0  0  0  0  0  0  0  0
  -17.3072  -42.3679   -7.7107 C   0  0  0  0  0  0  0  0  0  0  0  0
  -16.3951  -43.1432   -8.2950 O   0  0  0  0  0  0  0  0  0  0  0  0
  -16.7295  -41.1198   -7.3559 N   0  0  0  0  0  0  0  0  0  0  0  0
  -17.1246  -39.8061   -7.7760 C   0  0  1  0  0  0  0  0  0  0  0  0
  -17.9898  -39.1428   -6.7697 C   0  0  0  0  0  0  0  0  0  0  0  0
  -15.8028  -39.0502   -8.0414 C   0  0  2  0  0  0  0  0  0  0  0  0
  -16.0046  -37.6811   -7.9143 O   0  0  0  0  0  0  0  0  0  0  0  0
  -15.2878  -39.3200   -9.4041 C   0  0  0  0  0  0  0  0  0  0  0  0
  -14.8238  -40.5990   -9.7226 N   0  0  0  0  0  0  0  0  0  0  0  0
  -14.2426  -40.8920  -10.9706 C   0  0  0  0  0  0  0  0  0  0  0  0
  -15.0921  -40.4178  -12.1151 C   0  0  0  0  0  0  0  0  0  0  0  0
  -12.8713  -40.2381  -11.1432 C   0  0  0  0  0  0  0  0  0  0  0  0
  -14.0155  -42.3706  -11.1460 C   0  0  0  0  0  0  0  0  0  0  0  0
  -15.0153  -43.2669  -11.3943 C   0  0  0  0  0  0  0  0  0  0  0  0
  -14.4441  -44.5208  -11.5017 C   0  0  0  0  0  0  0  0  0  0  0  0
  -15.2065  -45.7624  -11.7703 C   0  0  0  0  0  0  0  0  0  0  0  0
  -14.6752  -46.5381  -12.9303 C   0  0  0  0  0  0  0  0  0  0  0  0
  -15.7973  -47.3189  -13.5823 C   0  0  0  0  0  0  0  0  0  0  0  0
  -14.0684  -45.6575  -14.0029 C   0  0  0  0  0  0  0  0  0  0  0  0
  -13.6327  -47.5375  -12.4341 C   0  0  0  0  0  0  0  0  0  0  0  0
  -13.1759  -44.3509  -11.3235 O   0  0  0  0  0  0  0  0  0  0  0  0
  -12.8918  -43.0794  -11.1092 N   0  0  0  0  0  0  0  0  0  0  0  0
  2  1  1  1
  2  3  1  0
  3  4  1  0
  4  5  1  0
  5  6  1  0
  6  7  1  0
  7  8  1  0
  8  9  1  0
  9 10  1  0
 10 11  1  0
 11 12  1  0
 12 13  2  0
 13 14  1  0
 14 15  2  0
 15 16  1  0
 13 17  1  0
 17 18  2  0
 17 19  1  0
 19 20  1  0
 20 21  1  1
 20 22  1  0
 22 23  1  6
 22 24  1  0
 24 25  1  0
 25 26  1  0
 26 27  1  0
 26 28  1  0
 26 29  1  0
 29 30  1  0
 30 31  2  0
 31 32  1  0
 32 33  1  0
 33 34  1  0
 33 35  1  0
 33 36  1  0
 31 37  1  0
 37 38  1  0
 16 11  2  0
 21  2  1  0
 38 29  2  0
M  END
$$$$
