
     RDKit          3D

 38 40  0  0  0  0  0  0  0  0999 V2000
  -20.1292  -37.5633   -6.0690 C   0  0  0  0  0  0  0  0  0  0  0  0
  -19.6067  -38.5583   -7.0944 C   0  0  2  0  0  0  0  0  0  0  0  0
  -20.6798  -39.4499   -7.6357 C   0  0  0  0  0  0  0  0  0  0  0  0
  -22.0542  -38.8643   -7.5110 C   0  0  0  0  0  0  0  0  0  0  0  0
  -23.0577  -39.8866   -7.9656 C   0  0  0  0  0  0  0  0  0  0  0  0
  -24.2097  -39.9619   -6.9844 C   0  0  0  0  0  0  0  0  0  0  0  0
  -24.2842  -41.3616   -6.4630 C   0  0  0  0  0  0  0  0  0  0  0  0
  -23.2471  -41.5865   -5.4154 C   0  0  0  0  0  0  0  0  0  0  0  0
  -23.2319  -43.0153   -4.9318 C   0  0  0  0  0  0  0  0  0  0  0  0
  -22.4827  -43.9017   -5.7909 N   0  0  0  0  0  0  0  0  0  0  0  0
  -21.2933  -43.7271   -6.5628 C   0  0  0  0  0  0  0  0  0  0  0  0
  -20.0901  -43.1192   -6.2758 C   0  0  0  0  0  0  0  0  0  0  0  0
  -19.1011  -43.1136   -7.2379 C   0  0  0  0  0  0  0  0  0  0  0  0
  -19.3467  -43.7325   -8.4921 C   0  0  0  0  0  0  0  0  0  0  0  0
  -20.5250  -44.3455   -8.8150 C   0  0  0  0  0  0  0  0  0  0  0  0
  -21.4772  -44.3288   -7.8369 C   0  0  0  0  0  0  0  0  0  0  0  0
  -17.7386  -42.5712   -7.2378 C   0  0  0  0  0  0  0  0  0  0  0  0
  -16.7649  -43.3433   -7.7176 O   0  0  0  0  0  0  0  0  0  0  0  0
  -17.2061  -41.3254   -6.8116 N   0  0  0  0  0  0  0  0  0  0  0  0
  -17.5505  -40.0091   -7.2667 C   0  0  1  0  0  0  0  0  0  0  0  0
  -18.5261  -39.3513   -6.3630 C   0  0  0  0  0  0  0  0  0  0  0  0
  -16.2071  -39.2521   -7.3735 C   0  0  2  0  0  0  0  0  0  0  0  0
  -16.3636  -38.1150   -8.1569 O   0  0  0  0  0  0  0  0  0  0  0  0
  -15.1554  -40.0974   -7.9852 C   0  0  0  0  0  0  0  0  0  0  0  0
  -14.1390  -39.4965   -8.7324 N   0  0  0  0  0  0  0  0  0  0  0  0
  -13.3763  -40.2182   -9.6698 C   0  0  0  0  0  0  0  0  0  0  0  0
  -12.1320  -40.7979   -9.0600 C   0  0  0  0  0  0  0  0  0  0  0  0
  -14.1523  -41.3878  -10.2763 C   0  0  0  0  0  0  0  0  0  0  0  0
  -12.9617  -39.3555  -10.8329 C   0  0  0  0  0  0  0  0  0  0  0  0
  -13.2687  -38.0294  -10.9405 C   0  0  0  0  0  0  0  0  0  0  0  0
  -12.7265  -37.5628  -12.1230 C   0  0  0  0  0  0  0  0  0  0  0  0
  -12.8442  -36.1645  -12.5980 C   0  0  0  0  0  0  0  0  0  0  0  0
  -11.5223  -35.5114  -12.8340 C   0  0  0  0  0  0  0  0  0  0  0  0
  -11.0113  -34.9065  -11.5430 C   0  0  0  0  0  0  0  0  0  0  0  0
  -10.4625  -36.4790  -13.3186 C   0  0  0  0  0  0  0  0  0  0  0  0
  -11.6912  -34.3825  -13.8484 C   0  0  0  0  0  0  0  0  0  0  0  0
  -12.1360  -38.5746  -12.6677 O   0  0  0  0  0  0  0  0  0  0  0  0
  -12.2601  -39.6564  -11.9209 N   0  0  0  0  0  0  0  0  0  0  0  0
  2  1  1  1
  2  3  1  0
  3  4  1  0
  4  5  1  0
  5  6  1  0
  6  7  1  0
  7  8  1  0
  8  9  1  0
  9 10  1  0
 10 11  1  0
 11 12  1  0
 12 13  2  0
 13 14  1  0
 14 15  2  0
 15 16  1  0
 13 17  1  0
 17 18  2  0
 17 19  1  0
 19 20  1  0
 20 21  1  1
 20 22  1  0
 22 23  1  6
 22 24  1  0
 24 25  1  0
 25 26  1  0
 26 27  1  0
 26 28  1  0
 26 29  1  0
 29 30  1  0
 30 31  2  0
 31 32  1  0
 32 33  1  0
 33 34  1  0
 33 35  1  0
 33 36  1  0
 31 37  1  0
 37 38  1  0
 16 11  2  0
 21  2  1  0
 38 29  2  0
M  END
$$$$
