
     RDKit          3D

 38 40  0  0  0  0  0  0  0  0999 V2000
  -19.9202  -37.9788   -5.5440 C   0  0  0  0  0  0  0  0  0  0  0  0
  -19.4556  -38.8230   -6.7213 C   0  0  2  0  0  0  0  0  0  0  0  0
  -20.5366  -39.7028   -7.2660 C   0  0  0  0  0  0  0  0  0  0  0  0
  -21.9165  -39.2077   -6.9521 C   0  0  0  0  0  0  0  0  0  0  0  0
  -22.9148  -40.2234   -7.4326 C   0  0  0  0  0  0  0  0  0  0  0  0
  -23.9651  -40.4691   -6.3687 C   0  0  0  0  0  0  0  0  0  0  0  0
  -23.9316  -41.9207   -6.0104 C   0  0  0  0  0  0  0  0  0  0  0  0
  -22.7920  -42.2077   -5.0925 C   0  0  0  0  0  0  0  0  0  0  0  0
  -22.6717  -43.6792   -4.7830 C   0  0  0  0  0  0  0  0  0  0  0  0
  -21.9703  -44.4226   -5.8030 N   0  0  0  0  0  0  0  0  0  0  0  0
  -20.8672  -44.0999   -6.6516 C   0  0  0  0  0  0  0  0  0  0  0  0
  -19.6688  -43.4662   -6.4033 C   0  0  0  0  0  0  0  0  0  0  0  0
  -18.7759  -43.3002   -7.4420 C   0  0  0  0  0  0  0  0  0  0  0  0
  -19.1124  -43.7856   -8.7333 C   0  0  0  0  0  0  0  0  0  0  0  0
  -20.2892  -44.4191   -9.0200 C   0  0  0  0  0  0  0  0  0  0  0  0
  -21.1450  -44.5628   -7.9661 C   0  0  0  0  0  0  0  0  0  0  0  0
  -17.4433  -42.6907   -7.4992 C   0  0  0  0  0  0  0  0  0  0  0  0
  -16.4877  -43.3518   -8.1506 O   0  0  0  0  0  0  0  0  0  0  0  0
  -16.9255  -41.4748   -6.9788 N   0  0  0  0  0  0  0  0  0  0  0  0
  -17.3659  -40.1354   -7.2442 C   0  0  1  0  0  0  0  0  0  0  0  0
  -18.2787  -39.6358   -6.1867 C   0  0  0  0  0  0  0  0  0  0  0  0
  -16.0714  -39.3020   -7.3803 C   0  0  2  0  0  0  0  0  0  0  0  0
  -16.3431  -38.1054   -8.0327 O   0  0  0  0  0  0  0  0  0  0  0  0
  -15.0371  -40.0287   -8.1529 C   0  0  0  0  0  0  0  0  0  0  0  0
  -13.9052  -39.3425   -8.6009 N   0  0  0  0  0  0  0  0  0  0  0  0
  -13.1456  -39.7927   -9.6970 C   0  0  0  0  0  0  0  0  0  0  0  0
  -11.7779  -40.2570   -9.2844 C   0  0  0  0  0  0  0  0  0  0  0  0
  -13.8059  -40.9661  -10.4216 C   0  0  0  0  0  0  0  0  0  0  0  0
  -12.9735  -38.7154  -10.7355 C   0  0  0  0  0  0  0  0  0  0  0  0
  -13.9279  -37.7830  -11.0260 C   0  0  0  0  0  0  0  0  0  0  0  0
  -13.4281  -36.9580  -12.0156 C   0  0  0  0  0  0  0  0  0  0  0  0
  -14.1701  -35.8177  -12.6020 C   0  0  0  0  0  0  0  0  0  0  0  0
  -13.7032  -34.4920  -12.0977 C   0  0  0  0  0  0  0  0  0  0  0  0
  -12.8729  -34.6829  -10.8456 C   0  0  0  0  0  0  0  0  0  0  0  0
  -12.8357  -33.7519  -13.0947 C   0  0  0  0  0  0  0  0  0  0  0  0
  -14.9140  -33.6356  -11.7336 C   0  0  0  0  0  0  0  0  0  0  0  0
  -12.2421  -37.3971  -12.2799 O   0  0  0  0  0  0  0  0  0  0  0  0
  -11.9448  -38.4438  -11.5321 N   0  0  0  0  0  0  0  0  0  0  0  0
  2  1  1  1
  2  3  1  0
  3  4  1  0
  4  5  1  0
  5  6  1  0
  6  7  1  0
  7  8  1  0
  8  9  1  0
  9 10  1  0
 10 11  1  0
 11 12  1  0
 12 13  2  0
 13 14  1  0
 14 15  2  0
 15 16  1  0
 13 17  1  0
 17 18  2  0
 17 19  1  0
 19 20  1  0
 20 21  1  1
 20 22  1  0
 22 23  1  6
 22 24  1  0
 24 25  1  0
 25 26  1  0
 26 27  1  0
 26 28  1  0
 26 29  1  0
 29 30  1  0
 30 31  2  0
 31 32  1  0
 32 33  1  0
 33 34  1  0
 33 35  1  0
 33 36  1  0
 31 37  1  0
 37 38  1  0
 16 11  2  0
 21  2  1  0
 38 29  2  0
M  END
$$$$
