
     RDKit          3D

 38 40  0  0  0  0  0  0  0  0999 V2000
  -19.4678  -38.2849   -4.9220 C   0  0  0  0  0  0  0  0  0  0  0  0
  -19.1977  -38.8490   -6.3088 C   0  0  2  0  0  0  0  0  0  0  0  0
  -20.3662  -39.5986   -6.8673 C   0  0  0  0  0  0  0  0  0  0  0  0
  -21.6745  -39.1956   -6.2559 C   0  0  0  0  0  0  0  0  0  0  0  0
  -22.7550  -40.0911   -6.7938 C   0  0  0  0  0  0  0  0  0  0  0  0
  -23.6463  -40.5714   -5.6667 C   0  0  0  0  0  0  0  0  0  0  0  0
  -23.5954  -42.0658   -5.6397 C   0  0  0  0  0  0  0  0  0  0  0  0
  -22.3424  -42.5356   -4.9819 C   0  0  0  0  0  0  0  0  0  0  0  0
  -22.2130  -44.0381   -5.0190 C   0  0  0  0  0  0  0  0  0  0  0  0
  -21.6836  -44.5359   -6.2668 N   0  0  0  0  0  0  0  0  0  0  0  0
  -20.7072  -44.0269   -7.1771 C   0  0  0  0  0  0  0  0  0  0  0  0
  -19.4710  -43.4519   -6.9751 C   0  0  0  0  0  0  0  0  0  0  0  0
  -18.7337  -43.0564   -8.0721 C   0  0  0  0  0  0  0  0  0  0  0  0
  -19.2642  -43.2523   -9.3746 C   0  0  0  0  0  0  0  0  0  0  0  0
  -20.4845  -43.8185   -9.6168 C   0  0  0  0  0  0  0  0  0  0  0  0
  -21.1825  -44.1953   -8.5057 C   0  0  0  0  0  0  0  0  0  0  0  0
  -17.4094  -42.4375   -8.1899 C   0  0  0  0  0  0  0  0  0  0  0  0
  -16.5735  -42.9328   -9.1011 O   0  0  0  0  0  0  0  0  0  0  0  0
  -16.7938  -41.3593   -7.5001 N   0  0  0  0  0  0  0  0  0  0  0  0
  -17.2365  -39.9982   -7.4023 C   0  0  1  0  0  0  0  0  0  0  0  0
  -17.9753  -39.7483   -6.1402 C   0  0  0  0  0  0  0  0  0  0  0  0
  -15.9560  -39.1438   -7.5422 C   0  0  2  0  0  0  0  0  0  0  0  0
  -16.2360  -37.8157   -7.2440 O   0  0  0  0  0  0  0  0  0  0  0  0
  -15.4097  -39.2066   -8.9179 C   0  0  0  0  0  0  0  0  0  0  0  0
  -14.3433  -40.0659   -9.1953 N   0  0  0  0  0  0  0  0  0  0  0  0
  -13.7927  -40.1785  -10.4858 C   0  0  0  0  0  0  0  0  0  0  0  0
  -12.9139  -41.3891  -10.6218 C   0  0  0  0  0  0  0  0  0  0  0  0
  -14.8653  -40.2924  -11.5695 C   0  0  0  0  0  0  0  0  0  0  0  0
  -12.9716  -38.9690  -10.8485 C   0  0  0  0  0  0  0  0  0  0  0  0
  -12.9356  -38.4248  -12.1004 C   0  0  0  0  0  0  0  0  0  0  0  0
  -12.0901  -37.3322  -12.0641 C   0  0  0  0  0  0  0  0  0  0  0  0
  -11.7893  -36.4734  -13.2332 C   0  0  0  0  0  0  0  0  0  0  0  0
  -12.4146  -35.1204  -13.1441 C   0  0  0  0  0  0  0  0  0  0  0  0
  -11.9140  -34.4045  -11.9069 C   0  0  0  0  0  0  0  0  0  0  0  0
  -12.0850  -34.2371  -14.3296 C   0  0  0  0  0  0  0  0  0  0  0  0
  -13.9291  -35.2716  -13.0201 C   0  0  0  0  0  0  0  0  0  0  0  0
  -11.6617  -37.2537  -10.8478 O   0  0  0  0  0  0  0  0  0  0  0  0
  -12.1704  -38.2165  -10.1012 N   0  0  0  0  0  0  0  0  0  0  0  0
  2  1  1  1
  2  3  1  0
  3  4  1  0
  4  5  1  0
  5  6  1  0
  6  7  1  0
  7  8  1  0
  8  9  1  0
  9 10  1  0
 10 11  1  0
 11 12  1  0
 12 13  2  0
 13 14  1  0
 14 15  2  0
 15 16  1  0
 13 17  1  0
 17 18  2  0
 17 19  1  0
 19 20  1  0
 20 21  1  1
 20 22  1  0
 22 23  1  6
 22 24  1  0
 24 25  1  0
 25 26  1  0
 26 27  1  0
 26 28  1  0
 26 29  1  0
 29 30  1  0
 30 31  2  0
 31 32  1  0
 32 33  1  0
 33 34  1  0
 33 35  1  0
 33 36  1  0
 31 37  1  0
 37 38  1  0
 16 11  2  0
 21  2  1  0
 38 29  2  0
M  END
$$$$
