
     RDKit          3D

 38 40  0  0  0  0  0  0  0  0999 V2000
  -15.4645  -44.4703   -8.8694 C   0  0  0  0  0  0  0  0  0  0  0  0
  -16.2286  -43.5533   -7.9260 C   0  0  2  0  0  0  0  0  0  0  0  0
  -17.4287  -44.2127   -7.3224 C   0  0  0  0  0  0  0  0  0  0  0  0
  -17.3367  -45.7091   -7.3079 C   0  0  0  0  0  0  0  0  0  0  0  0
  -18.6367  -46.2677   -6.8008 C   0  0  0  0  0  0  0  0  0  0  0  0
  -19.0920  -47.4146   -7.6799 C   0  0  0  0  0  0  0  0  0  0  0  0
  -20.4352  -47.0665   -8.2377 C   0  0  0  0  0  0  0  0  0  0  0  0
  -20.2986  -46.1159   -9.3784 C   0  0  0  0  0  0  0  0  0  0  0  0
  -21.6392  -45.6704   -9.9073 C   0  0  0  0  0  0  0  0  0  0  0  0
  -22.2248  -44.5923   -9.1459 N   0  0  0  0  0  0  0  0  0  0  0  0
  -21.6630  -43.4628   -8.4753 C   0  0  0  0  0  0  0  0  0  0  0  0
  -20.6870  -42.5631   -8.8462 C   0  0  0  0  0  0  0  0  0  0  0  0
  -20.3519  -41.5477   -7.9743 C   0  0  0  0  0  0  0  0  0  0  0  0
  -21.0189  -41.4554   -6.7241 C   0  0  0  0  0  0  0  0  0  0  0  0
  -21.9914  -42.3266   -6.3197 C   0  0  0  0  0  0  0  0  0  0  0  0
  -22.2932  -43.3165   -7.2101 C   0  0  0  0  0  0  0  0  0  0  0  0
  -19.3847  -40.4500   -8.0755 C   0  0  0  0  0  0  0  0  0  0  0  0
  -19.7869  -39.2346   -7.7076 O   0  0  0  0  0  0  0  0  0  0  0  0
  -18.0319  -40.4051   -8.5061 N   0  0  0  0  0  0  0  0  0  0  0  0
  -16.9075  -41.1246   -7.9804 C   0  0  1  0  0  0  0  0  0  0  0  0
  -16.6131  -42.3431   -8.7739 C   0  0  0  0  0  0  0  0  0  0  0  0
  -15.7446  -40.1065   -7.9666 C   0  0  2  0  0  0  0  0  0  0  0  0
  -15.0270  -40.2208   -6.7820 O   0  0  0  0  0  0  0  0  0  0  0  0
  -16.2407  -38.7149   -8.0777 C   0  0  0  0  0  0  0  0  0  0  0  0
  -16.8588  -38.2980   -9.2594 N   0  0  0  0  0  0  0  0  0  0  0  0
  -16.6134  -37.0315   -9.8226 C   0  0  0  0  0  0  0  0  0  0  0  0
  -16.4390  -35.9706   -8.7735 C   0  0  0  0  0  0  0  0  0  0  0  0
  -15.3485  -37.0102  -10.6812 C   0  0  0  0  0  0  0  0  0  0  0  0
  -17.7331  -36.6004  -10.7332 C   0  0  0  0  0  0  0  0  0  0  0  0
  -17.6185  -35.5986  -11.6539 C   0  0  0  0  0  0  0  0  0  0  0  0
  -18.8302  -35.4827  -12.3082 C   0  0  0  0  0  0  0  0  0  0  0  0
  -19.1049  -34.5016  -13.3837 C   0  0  0  0  0  0  0  0  0  0  0  0
  -20.0165  -33.3996  -12.9544 C   0  0  0  0  0  0  0  0  0  0  0  0
  -20.2331  -33.4673  -11.4570 C   0  0  0  0  0  0  0  0  0  0  0  0
  -19.4645  -32.0225  -13.2593 C   0  0  0  0  0  0  0  0  0  0  0  0
  -21.3727  -33.5728  -13.6345 C   0  0  0  0  0  0  0  0  0  0  0  0
  -19.6034  -36.3768  -11.7868 O   0  0  0  0  0  0  0  0  0  0  0  0
  -18.9761  -37.0576  -10.8454 N   0  0  0  0  0  0  0  0  0  0  0  0
  2  1  1  6
  2  3  1  0
  3  4  1  0
  4  5  1  0
  5  6  1  0
  6  7  1  0
  7  8  1  0
  8  9  1  0
  9 10  1  0
 10 11  1  0
 11 12  1  0
 12 13  2  0
 13 14  1  0
 14 15  2  0
 15 16  1  0
 13 17  1  0
 17 18  2  0
 17 19  1  0
 19 20  1  0
 20 21  1  6
 20 22  1  0
 22 23  1  1
 22 24  1  0
 24 25  1  0
 25 26  1  0
 26 27  1  0
 26 28  1  0
 26 29  1  0
 29 30  1  0
 30 31  2  0
 31 32  1  0
 32 33  1  0
 33 34  1  0
 33 35  1  0
 33 36  1  0
 31 37  1  0
 37 38  1  0
 16 11  2  0
 21  2  1  0
 38 29  2  0
M  END
$$$$
