
     RDKit          3D

 38 40  0  0  0  0  0  0  0  0999 V2000
  -19.6671  -37.7504   -5.1359 C   0  0  0  0  0  0  0  0  0  0  0  0
  -19.8791  -38.2894   -6.5427 C   0  0  2  0  0  0  0  0  0  0  0  0
  -21.0182  -39.2562   -6.6274 C   0  0  0  0  0  0  0  0  0  0  0  0
  -22.0208  -39.0870   -5.5256 C   0  0  0  0  0  0  0  0  0  0  0  0
  -23.0464  -40.1803   -5.6340 C   0  0  0  0  0  0  0  0  0  0  0  0
  -23.3091  -40.7887   -4.2716 C   0  0  0  0  0  0  0  0  0  0  0  0
  -22.9842  -42.2467   -4.3442 C   0  0  0  0  0  0  0  0  0  0  0  0
  -21.5105  -42.4598   -4.2651 C   0  0  0  0  0  0  0  0  0  0  0  0
  -21.1394  -43.9128   -4.4281 C   0  0  0  0  0  0  0  0  0  0  0  0
  -21.0746  -44.3353   -5.8073 N   0  0  0  0  0  0  0  0  0  0  0  0
  -20.6537  -43.6774   -7.0036 C   0  0  0  0  0  0  0  0  0  0  0  0
  -19.5654  -42.8787   -7.2813 C   0  0  0  0  0  0  0  0  0  0  0  0
  -19.4137  -42.3813   -8.5593 C   0  0  0  0  0  0  0  0  0  0  0  0
  -20.3772  -42.7047   -9.5510 C   0  0  0  0  0  0  0  0  0  0  0  0
  -21.4689  -43.4929   -9.3159 C   0  0  0  0  0  0  0  0  0  0  0  0
  -21.5829  -43.9643   -8.0397 C   0  0  0  0  0  0  0  0  0  0  0  0
  -18.3823  -41.5311   -9.1627 C   0  0  0  0  0  0  0  0  0  0  0  0
  -17.9076  -41.8859  -10.3557 O   0  0  0  0  0  0  0  0  0  0  0  0
  -17.7462  -40.3406   -8.7206 N   0  0  0  0  0  0  0  0  0  0  0  0
  -18.3491  -39.0829   -8.3845 C   0  0  1  0  0  0  0  0  0  0  0  0
  -18.5519  -38.9424   -6.9215 C   0  0  0  0  0  0  0  0  0  0  0  0
  -17.4083  -38.0101   -8.9786 C   0  0  2  0  0  0  0  0  0  0  0  0
  -17.5632  -37.9538  -10.3585 O   0  0  0  0  0  0  0  0  0  0  0  0
  -15.9881  -38.3098   -8.6817 C   0  0  0  0  0  0  0  0  0  0  0  0
  -15.0820  -38.4566   -9.7353 N   0  0  0  0  0  0  0  0  0  0  0  0
  -14.5080  -39.7009  -10.0572 C   0  0  0  0  0  0  0  0  0  0  0  0
  -13.7274  -40.2770   -8.9104 C   0  0  0  0  0  0  0  0  0  0  0  0
  -15.5569  -40.7451  -10.4411 C   0  0  0  0  0  0  0  0  0  0  0  0
  -13.5817  -39.5975  -11.2404 C   0  0  0  0  0  0  0  0  0  0  0  0
  -12.3210  -40.1216  -11.2643 C   0  0  0  0  0  0  0  0  0  0  0  0
  -11.7693  -39.8441  -12.5007 C   0  0  0  0  0  0  0  0  0  0  0  0
  -10.4062  -40.2511  -12.9141 C   0  0  0  0  0  0  0  0  0  0  0  0
   -9.4115  -39.1405  -12.8318 C   0  0  0  0  0  0  0  0  0  0  0  0
   -9.4348  -38.5329  -11.4447 C   0  0  0  0  0  0  0  0  0  0  0  0
   -7.9909  -39.5983  -13.0899 C   0  0  0  0  0  0  0  0  0  0  0  0
   -9.7901  -38.0490  -13.8303 C   0  0  0  0  0  0  0  0  0  0  0  0
  -12.6721  -39.1914  -13.1550 O   0  0  0  0  0  0  0  0  0  0  0  0
  -13.7626  -39.0297  -12.4285 N   0  0  0  0  0  0  0  0  0  0  0  0
  2  1  1  1
  2  3  1  0
  3  4  1  0
  4  5  1  0
  5  6  1  0
  6  7  1  0
  7  8  1  0
  8  9  1  0
  9 10  1  0
 10 11  1  0
 11 12  1  0
 12 13  2  0
 13 14  1  0
 14 15  2  0
 15 16  1  0
 13 17  1  0
 17 18  2  0
 17 19  1  0
 19 20  1  0
 20 21  1  1
 20 22  1  0
 22 23  1  6
 22 24  1  0
 24 25  1  0
 25 26  1  0
 26 27  1  0
 26 28  1  0
 26 29  1  0
 29 30  1  0
 30 31  2  0
 31 32  1  0
 32 33  1  0
 33 34  1  0
 33 35  1  0
 33 36  1  0
 31 37  1  0
 37 38  1  0
 16 11  2  0
 21  2  1  0
 38 29  2  0
M  END
$$$$
