
     RDKit          3D

 38 40  0  0  0  0  0  0  0  0999 V2000
  -19.6843  -38.4910   -5.1568 C   0  0  0  0  0  0  0  0  0  0  0  0
  -19.2338  -38.7565   -6.5855 C   0  0  2  0  0  0  0  0  0  0  0  0
  -20.1590  -39.6717   -7.3243 C   0  0  0  0  0  0  0  0  0  0  0  0
  -21.5470  -39.6927   -6.7581 C   0  0  0  0  0  0  0  0  0  0  0  0
  -22.3515  -40.7297   -7.4906 C   0  0  0  0  0  0  0  0  0  0  0  0
  -23.1346  -41.5755   -6.5073 C   0  0  0  0  0  0  0  0  0  0  0  0
  -22.7149  -43.0000   -6.6837 C   0  0  0  0  0  0  0  0  0  0  0  0
  -21.4084  -43.2487   -6.0094 C   0  0  0  0  0  0  0  0  0  0  0  0
  -20.9085  -44.6524   -6.2445 C   0  0  0  0  0  0  0  0  0  0  0  0
  -20.2285  -44.8130   -7.5082 N   0  0  0  0  0  0  0  0  0  0  0  0
  -19.3777  -43.9521   -8.2672 C   0  0  0  0  0  0  0  0  0  0  0  0
  -18.3311  -43.1341   -7.8998 C   0  0  0  0  0  0  0  0  0  0  0  0
  -17.6770  -42.4112   -8.8761 C   0  0  0  0  0  0  0  0  0  0  0  0
  -18.0960  -42.5291  -10.2277 C   0  0  0  0  0  0  0  0  0  0  0  0
  -19.1280  -43.3288  -10.6325 C   0  0  0  0  0  0  0  0  0  0  0  0
  -19.7491  -44.0265   -9.6368 C   0  0  0  0  0  0  0  0  0  0  0  0
  -16.5448  -41.4813   -8.8122 C   0  0  0  0  0  0  0  0  0  0  0  0
  -15.5805  -41.6169   -9.7212 O   0  0  0  0  0  0  0  0  0  0  0  0
  -16.2410  -40.4042   -7.9377 N   0  0  0  0  0  0  0  0  0  0  0  0
  -17.0113  -39.2206   -7.6845 C   0  0  1  0  0  0  0  0  0  0  0  0
  -17.8330  -39.3502   -6.4560 C   0  0  0  0  0  0  0  0  0  0  0  0
  -15.9791  -38.0722   -7.6131 C   0  0  2  0  0  0  0  0  0  0  0  0
  -16.6224  -36.8468   -7.7387 O   0  0  0  0  0  0  0  0  0  0  0  0
  -14.9709  -38.1812   -8.6930 C   0  0  0  0  0  0  0  0  0  0  0  0
  -14.9789  -37.2525   -9.7370 N   0  0  0  0  0  0  0  0  0  0  0  0
  -14.4525  -37.5539  -11.0072 C   0  0  0  0  0  0  0  0  0  0  0  0
  -15.3677  -37.1190  -12.1161 C   0  0  0  0  0  0  0  0  0  0  0  0
  -13.1069  -36.8723  -11.2576 C   0  0  0  0  0  0  0  0  0  0  0  0
  -14.1997  -39.0299  -11.1694 C   0  0  0  0  0  0  0  0  0  0  0  0
  -14.4293  -39.7156  -12.3277 C   0  0  0  0  0  0  0  0  0  0  0  0
  -14.0821  -41.0363  -12.1151 C   0  0  0  0  0  0  0  0  0  0  0  0
  -14.1884  -42.1002  -13.1405 C   0  0  0  0  0  0  0  0  0  0  0  0
  -13.5799  -43.3939  -12.7095 C   0  0  0  0  0  0  0  0  0  0  0  0
  -14.6718  -44.3994  -12.4090 C   0  0  0  0  0  0  0  0  0  0  0  0
  -12.6902  -44.0111  -13.7686 C   0  0  0  0  0  0  0  0  0  0  0  0
  -12.7782  -43.1726  -11.4288 C   0  0  0  0  0  0  0  0  0  0  0  0
  -13.6724  -41.1042  -10.8917 O   0  0  0  0  0  0  0  0  0  0  0  0
  -13.7317  -39.9235  -10.3039 N   0  0  0  0  0  0  0  0  0  0  0  0
  2  1  1  1
  2  3  1  0
  3  4  1  0
  4  5  1  0
  5  6  1  0
  6  7  1  0
  7  8  1  0
  8  9  1  0
  9 10  1  0
 10 11  1  0
 11 12  1  0
 12 13  2  0
 13 14  1  0
 14 15  2  0
 15 16  1  0
 13 17  1  0
 17 18  2  0
 17 19  1  0
 19 20  1  0
 20 21  1  1
 20 22  1  0
 22 23  1  6
 22 24  1  0
 24 25  1  0
 25 26  1  0
 26 27  1  0
 26 28  1  0
 26 29  1  0
 29 30  1  0
 30 31  2  0
 31 32  1  0
 32 33  1  0
 33 34  1  0
 33 35  1  0
 33 36  1  0
 31 37  1  0
 37 38  1  0
 16 11  2  0
 21  2  1  0
 38 29  2  0
M  END
$$$$
