
     RDKit          3D

 38 40  0  0  0  0  0  0  0  0999 V2000
  -19.8834  -38.2555   -5.1079 C   0  0  0  0  0  0  0  0  0  0  0  0
  -19.6353  -38.7366   -6.5297 C   0  0  2  0  0  0  0  0  0  0  0  0
  -20.6904  -39.6806   -7.0145 C   0  0  0  0  0  0  0  0  0  0  0  0
  -21.9926  -39.5373   -6.2854 C   0  0  0  0  0  0  0  0  0  0  0  0
  -22.9330  -40.6086   -6.7617 C   0  0  0  0  0  0  0  0  0  0  0  0
  -23.6203  -41.2644   -5.5815 C   0  0  0  0  0  0  0  0  0  0  0  0
  -23.2942  -42.7237   -5.6070 C   0  0  0  0  0  0  0  0  0  0  0  0
  -21.9242  -42.9639   -5.0695 C   0  0  0  0  0  0  0  0  0  0  0  0
  -21.5252  -44.4155   -5.1655 C   0  0  0  0  0  0  0  0  0  0  0  0
  -21.0234  -44.7857   -6.4679 N   0  0  0  0  0  0  0  0  0  0  0  0
  -20.2392  -44.0895   -7.4381 C   0  0  0  0  0  0  0  0  0  0  0  0
  -19.1167  -43.2987   -7.3195 C   0  0  0  0  0  0  0  0  0  0  0  0
  -18.5620  -42.7552   -8.4599 C   0  0  0  0  0  0  0  0  0  0  0  0
  -19.1580  -43.0244   -9.7203 C   0  0  0  0  0  0  0  0  0  0  0  0
  -20.2702  -43.8030   -9.8799 C   0  0  0  0  0  0  0  0  0  0  0  0
  -20.7886  -44.3210   -8.7281 C   0  0  0  0  0  0  0  0  0  0  0  0
  -17.3888  -41.8996   -8.6656 C   0  0  0  0  0  0  0  0  0  0  0  0
  -16.5582  -42.2161   -9.6578 O   0  0  0  0  0  0  0  0  0  0  0  0
  -16.9240  -40.7376   -7.9941 N   0  0  0  0  0  0  0  0  0  0  0  0
  -17.5986  -39.4839   -7.8165 C   0  0  1  0  0  0  0  0  0  0  0  0
  -18.2589  -39.3964   -6.4908 C   0  0  0  0  0  0  0  0  0  0  0  0
  -16.5134  -38.4048   -8.0332 C   0  0  2  0  0  0  0  0  0  0  0  0
  -17.0949  -37.2345   -8.5060 O   0  0  0  0  0  0  0  0  0  0  0  0
  -15.4958  -38.8482   -9.0144 C   0  0  0  0  0  0  0  0  0  0  0  0
  -14.4423  -39.6628   -8.5913 N   0  0  0  0  0  0  0  0  0  0  0  0
  -13.2945  -39.8669   -9.3800 C   0  0  0  0  0  0  0  0  0  0  0  0
  -12.0350  -39.4900   -8.6534 C   0  0  0  0  0  0  0  0  0  0  0  0
  -13.1328  -41.3259   -9.8079 C   0  0  0  0  0  0  0  0  0  0  0  0
  -13.3470  -39.0697  -10.6568 C   0  0  0  0  0  0  0  0  0  0  0  0
  -12.5493  -37.9908  -10.9103 C   0  0  0  0  0  0  0  0  0  0  0  0
  -12.8653  -37.5157  -12.1690 C   0  0  0  0  0  0  0  0  0  0  0  0
  -12.2124  -36.3483  -12.8060 C   0  0  0  0  0  0  0  0  0  0  0  0
  -12.6978  -35.0408  -12.2728 C   0  0  0  0  0  0  0  0  0  0  0  0
  -12.1192  -33.9061  -13.0922 C   0  0  0  0  0  0  0  0  0  0  0  0
  -14.2051  -34.9021  -12.3282 C   0  0  0  0  0  0  0  0  0  0  0  0
  -12.2181  -34.8737  -10.8327 C   0  0  0  0  0  0  0  0  0  0  0  0
  -13.8006  -38.2866  -12.6162 O   0  0  0  0  0  0  0  0  0  0  0  0
  -14.1079  -39.2215  -11.7360 N   0  0  0  0  0  0  0  0  0  0  0  0
  2  1  1  1
  2  3  1  0
  3  4  1  0
  4  5  1  0
  5  6  1  0
  6  7  1  0
  7  8  1  0
  8  9  1  0
  9 10  1  0
 10 11  1  0
 11 12  1  0
 12 13  2  0
 13 14  1  0
 14 15  2  0
 15 16  1  0
 13 17  1  0
 17 18  2  0
 17 19  1  0
 19 20  1  0
 20 21  1  1
 20 22  1  0
 22 23  1  6
 22 24  1  0
 24 25  1  0
 25 26  1  0
 26 27  1  0
 26 28  1  0
 26 29  1  0
 29 30  1  0
 30 31  2  0
 31 32  1  0
 32 33  1  0
 33 34  1  0
 33 35  1  0
 33 36  1  0
 31 37  1  0
 37 38  1  0
 16 11  2  0
 21  2  1  0
 38 29  2  0
M  END
$$$$
