
     RDKit          3D

 38 40  0  0  0  0  0  0  0  0999 V2000
  -20.2590  -37.9277   -5.5169 C   0  0  0  0  0  0  0  0  0  0  0  0
  -19.6703  -38.5598   -6.7693 C   0  0  2  0  0  0  0  0  0  0  0  0
  -20.6423  -39.4458   -7.4830 C   0  0  0  0  0  0  0  0  0  0  0  0
  -22.0737  -39.1182   -7.1806 C   0  0  0  0  0  0  0  0  0  0  0  0
  -22.9536  -40.1400   -7.8444 C   0  0  0  0  0  0  0  0  0  0  0  0
  -24.0201  -40.6181   -6.8802 C   0  0  0  0  0  0  0  0  0  0  0  0
  -23.8682  -42.0968   -6.7166 C   0  0  0  0  0  0  0  0  0  0  0  0
  -22.7461  -42.4085   -5.7852 C   0  0  0  0  0  0  0  0  0  0  0  0
  -22.5040  -43.8928   -5.6678 C   0  0  0  0  0  0  0  0  0  0  0  0
  -21.6955  -44.4267   -6.7385 N   0  0  0  0  0  0  0  0  0  0  0  0
  -20.5924  -43.8977   -7.4764 C   0  0  0  0  0  0  0  0  0  0  0  0
  -19.4687  -43.2038   -7.0824 C   0  0  0  0  0  0  0  0  0  0  0  0
  -18.5525  -42.8214   -8.0405 C   0  0  0  0  0  0  0  0  0  0  0  0
  -18.7891  -43.1523   -9.4010 C   0  0  0  0  0  0  0  0  0  0  0  0
  -19.8898  -43.8388   -9.8319 C   0  0  0  0  0  0  0  0  0  0  0  0
  -20.7718  -44.1981   -8.8537 C   0  0  0  0  0  0  0  0  0  0  0  0
  -17.2804  -42.0982   -7.9449 C   0  0  0  0  0  0  0  0  0  0  0  0
  -16.2419  -42.5796   -8.6262 O   0  0  0  0  0  0  0  0  0  0  0  0
  -16.8986  -40.9253   -7.2407 N   0  0  0  0  0  0  0  0  0  0  0  0
  -17.4489  -39.6048   -7.3491 C   0  0  1  0  0  0  0  0  0  0  0  0
  -18.4469  -39.3346   -6.2851 C   0  0  0  0  0  0  0  0  0  0  0  0
  -16.2319  -38.6529   -7.3039 C   0  0  2  0  0  0  0  0  0  0  0  0
  -16.5793  -37.4676   -6.6670 O   0  0  0  0  0  0  0  0  0  0  0  0
  -15.7487  -38.3252   -8.6655 C   0  0  0  0  0  0  0  0  0  0  0  0
  -14.9860  -39.2618   -9.3679 N   0  0  0  0  0  0  0  0  0  0  0  0
  -13.7431  -38.9324   -9.9408 C   0  0  0  0  0  0  0  0  0  0  0  0
  -13.2475  -37.5904   -9.4828 C   0  0  0  0  0  0  0  0  0  0  0  0
  -12.6525  -39.9449   -9.5897 C   0  0  0  0  0  0  0  0  0  0  0  0
  -13.8117  -38.9104  -11.4453 C   0  0  0  0  0  0  0  0  0  0  0  0
  -12.7142  -38.9753  -12.2552 C   0  0  0  0  0  0  0  0  0  0  0  0
  -13.1510  -38.9365  -13.5658 C   0  0  0  0  0  0  0  0  0  0  0  0
  -12.2540  -38.9859  -14.7438 C   0  0  0  0  0  0  0  0  0  0  0  0
  -11.7015  -37.6500  -15.1175 C   0  0  0  0  0  0  0  0  0  0  0  0
  -12.8126  -36.7635  -15.6405 C   0  0  0  0  0  0  0  0  0  0  0  0
  -11.0694  -36.9232  -13.9486 C   0  0  0  0  0  0  0  0  0  0  0  0
  -10.6731  -37.8233  -16.2330 C   0  0  0  0  0  0  0  0  0  0  0  0
  -14.4391  -38.8534  -13.5096 O   0  0  0  0  0  0  0  0  0  0  0  0
  -14.8604  -38.8358  -12.2584 N   0  0  0  0  0  0  0  0  0  0  0  0
  2  1  1  1
  2  3  1  0
  3  4  1  0
  4  5  1  0
  5  6  1  0
  6  7  1  0
  7  8  1  0
  8  9  1  0
  9 10  1  0
 10 11  1  0
 11 12  1  0
 12 13  2  0
 13 14  1  0
 14 15  2  0
 15 16  1  0
 13 17  1  0
 17 18  2  0
 17 19  1  0
 19 20  1  0
 20 21  1  1
 20 22  1  0
 22 23  1  6
 22 24  1  0
 24 25  1  0
 25 26  1  0
 26 27  1  0
 26 28  1  0
 26 29  1  0
 29 30  1  0
 30 31  2  0
 31 32  1  0
 32 33  1  0
 33 34  1  0
 33 35  1  0
 33 36  1  0
 31 37  1  0
 37 38  1  0
 16 11  2  0
 21  2  1  0
 38 29  2  0
M  END
$$$$
