
     RDKit          3D

 38 40  0  0  0  0  0  0  0  0999 V2000
  -18.3592  -44.5940   -8.9219 C   0  0  0  0  0  0  0  0  0  0  0  0
  -18.1079  -43.6941   -7.7213 C   0  0  2  0  0  0  0  0  0  0  0  0
  -19.0593  -43.9512   -6.5951 C   0  0  0  0  0  0  0  0  0  0  0  0
  -19.6599  -45.3245   -6.6300 C   0  0  0  0  0  0  0  0  0  0  0  0
  -20.6858  -45.4306   -5.5368 C   0  0  0  0  0  0  0  0  0  0  0  0
  -21.9511  -46.0737   -6.0669 C   0  0  0  0  0  0  0  0  0  0  0  0
  -23.0782  -45.1106   -5.8706 C   0  0  0  0  0  0  0  0  0  0  0  0
  -23.0551  -44.0552   -6.9237 C   0  0  0  0  0  0  0  0  0  0  0  0
  -24.1232  -43.0129   -6.7036 C   0  0  0  0  0  0  0  0  0  0  0  0
  -23.7433  -41.9974   -5.7500 N   0  0  0  0  0  0  0  0  0  0  0  0
  -22.4977  -41.3636   -5.4537 C   0  0  0  0  0  0  0  0  0  0  0  0
  -21.5054  -40.8580   -6.2657 C   0  0  0  0  0  0  0  0  0  0  0  0
  -20.3955  -40.2835   -5.6812 C   0  0  0  0  0  0  0  0  0  0  0  0
  -20.3052  -40.2270   -4.2652 C   0  0  0  0  0  0  0  0  0  0  0  0
  -21.2668  -40.7163   -3.4261 C   0  0  0  0  0  0  0  0  0  0  0  0
  -22.3479  -41.2768   -4.0432 C   0  0  0  0  0  0  0  0  0  0  0  0
  -19.1991  -39.6598   -6.2558 C   0  0  0  0  0  0  0  0  0  0  0  0
  -18.7928  -38.5034   -5.7343 O   0  0  0  0  0  0  0  0  0  0  0  0
  -18.3308  -40.0498   -7.3100 N   0  0  0  0  0  0  0  0  0  0  0  0
  -17.5548  -41.2511   -7.4240 C   0  0  1  0  0  0  0  0  0  0  0  0
  -18.2369  -42.2706   -8.2585 C   0  0  0  0  0  0  0  0  0  0  0  0
  -16.1921  -40.8011   -7.9981 C   0  0  2  0  0  0  0  0  0  0  0  0
  -15.2351  -40.7816   -6.9905 O   0  0  0  0  0  0  0  0  0  0  0  0
  -16.2735  -39.4448   -8.5886 C   0  0  0  0  0  0  0  0  0  0  0  0
  -17.1897  -39.1956   -9.6138 N   0  0  0  0  0  0  0  0  0  0  0  0
  -17.3851  -37.9056  -10.1419 C   0  0  0  0  0  0  0  0  0  0  0  0
  -18.3873  -37.8986  -11.2608 C   0  0  0  0  0  0  0  0  0  0  0  0
  -17.8939  -36.9167   -9.0925 C   0  0  0  0  0  0  0  0  0  0  0  0
  -16.1015  -37.3189  -10.6682 C   0  0  0  0  0  0  0  0  0  0  0  0
  -15.9927  -36.6966  -11.8788 C   0  0  0  0  0  0  0  0  0  0  0  0
  -14.6826  -36.2822  -12.0268 C   0  0  0  0  0  0  0  0  0  0  0  0
  -14.1661  -35.5639  -13.2150 C   0  0  0  0  0  0  0  0  0  0  0  0
  -12.6761  -35.5823  -13.3105 C   0  0  0  0  0  0  0  0  0  0  0  0
  -12.2303  -34.7985  -14.5273 C   0  0  0  0  0  0  0  0  0  0  0  0
  -11.9985  -34.9565  -12.1090 C   0  0  0  0  0  0  0  0  0  0  0  0
  -12.1990  -37.0232  -13.4779 C   0  0  0  0  0  0  0  0  0  0  0  0
  -14.0692  -36.6499  -10.9508 O   0  0  0  0  0  0  0  0  0  0  0  0
  -14.8901  -37.2702  -10.1235 N   0  0  0  0  0  0  0  0  0  0  0  0
  2  1  1  6
  2  3  1  0
  3  4  1  0
  4  5  1  0
  5  6  1  0
  6  7  1  0
  7  8  1  0
  8  9  1  0
  9 10  1  0
 10 11  1  0
 11 12  1  0
 12 13  2  0
 13 14  1  0
 14 15  2  0
 15 16  1  0
 13 17  1  0
 17 18  2  0
 17 19  1  0
 19 20  1  0
 20 21  1  6
 20 22  1  0
 22 23  1  1
 22 24  1  0
 24 25  1  0
 25 26  1  0
 26 27  1  0
 26 28  1  0
 26 29  1  0
 29 30  1  0
 30 31  2  0
 31 32  1  0
 32 33  1  0
 33 34  1  0
 33 35  1  0
 33 36  1  0
 31 37  1  0
 37 38  1  0
 16 11  2  0
 21  2  1  0
 38 29  2  0
M  END
$$$$
