
     RDKit          3D

 38 40  0  0  0  0  0  0  0  0999 V2000
  -19.7726  -37.6367   -5.2309 C   0  0  0  0  0  0  0  0  0  0  0  0
  -19.3621  -38.4620   -6.4412 C   0  0  2  0  0  0  0  0  0  0  0  0
  -20.4884  -39.2757   -6.9968 C   0  0  0  0  0  0  0  0  0  0  0  0
  -21.8405  -38.7313   -6.6464 C   0  0  0  0  0  0  0  0  0  0  0  0
  -22.8892  -39.6864   -7.1434 C   0  0  0  0  0  0  0  0  0  0  0  0
  -23.9345  -39.9202   -6.0718 C   0  0  0  0  0  0  0  0  0  0  0  0
  -23.9601  -41.3827   -5.7601 C   0  0  0  0  0  0  0  0  0  0  0  0
  -22.8216  -41.7486   -4.8693 C   0  0  0  0  0  0  0  0  0  0  0  0
  -22.7620  -43.2332   -4.6083 C   0  0  0  0  0  0  0  0  0  0  0  0
  -22.1084  -43.9732   -5.6620 N   0  0  0  0  0  0  0  0  0  0  0  0
  -21.0040  -43.6718   -6.5167 C   0  0  0  0  0  0  0  0  0  0  0  0
  -19.7754  -43.0993   -6.2668 C   0  0  0  0  0  0  0  0  0  0  0  0
  -18.8906  -42.9391   -7.3133 C   0  0  0  0  0  0  0  0  0  0  0  0
  -19.2661  -43.3674   -8.6140 C   0  0  0  0  0  0  0  0  0  0  0  0
  -20.4736  -43.9393   -8.9026 C   0  0  0  0  0  0  0  0  0  0  0  0
  -21.3202  -44.0794   -7.8407 C   0  0  0  0  0  0  0  0  0  0  0  0
  -17.5333  -42.3868   -7.3716 C   0  0  0  0  0  0  0  0  0  0  0  0
  -16.6170  -43.0675   -8.0582 O   0  0  0  0  0  0  0  0  0  0  0  0
  -16.9553  -41.2121   -6.8211 N   0  0  0  0  0  0  0  0  0  0  0  0
  -17.3398  -39.8469   -7.0372 C   0  0  1  0  0  0  0  0  0  0  0  0
  -18.2149  -39.3422   -5.9506 C   0  0  0  0  0  0  0  0  0  0  0  0
  -16.0118  -39.0667   -7.1667 C   0  0  2  0  0  0  0  0  0  0  0  0
  -16.2513  -37.7013   -7.0684 O   0  0  0  0  0  0  0  0  0  0  0  0
  -15.3520  -39.3310   -8.4666 C   0  0  0  0  0  0  0  0  0  0  0  0
  -14.2198  -40.1488   -8.5089 N   0  0  0  0  0  0  0  0  0  0  0  0
  -13.5144  -40.3844   -9.7040 C   0  0  0  0  0  0  0  0  0  0  0  0
  -12.3367  -41.2932   -9.4954 C   0  0  0  0  0  0  0  0  0  0  0  0
  -14.3865  -41.0374  -10.7768 C   0  0  0  0  0  0  0  0  0  0  0  0
  -13.0071  -39.1037  -10.3131 C   0  0  0  0  0  0  0  0  0  0  0  0
  -12.8291  -38.9206  -11.6545 C   0  0  0  0  0  0  0  0  0  0  0  0
  -12.3611  -37.6348  -11.8489 C   0  0  0  0  0  0  0  0  0  0  0  0
  -12.0459  -37.0556  -13.1756 C   0  0  0  0  0  0  0  0  0  0  0  0
  -12.6540  -35.7084  -13.3875 C   0  0  0  0  0  0  0  0  0  0  0  0
  -12.0226  -34.7065  -12.4435 C   0  0  0  0  0  0  0  0  0  0  0  0
  -12.4494  -35.1814  -14.7927 C   0  0  0  0  0  0  0  0  0  0  0  0
  -14.1472  -35.7739  -13.0746 C   0  0  0  0  0  0  0  0  0  0  0  0
  -12.2751  -37.1056  -10.6735 O   0  0  0  0  0  0  0  0  0  0  0  0
  -12.6535  -37.9582   -9.7391 N   0  0  0  0  0  0  0  0  0  0  0  0
  2  1  1  1
  2  3  1  0
  3  4  1  0
  4  5  1  0
  5  6  1  0
  6  7  1  0
  7  8  1  0
  8  9  1  0
  9 10  1  0
 10 11  1  0
 11 12  1  0
 12 13  2  0
 13 14  1  0
 14 15  2  0
 15 16  1  0
 13 17  1  0
 17 18  2  0
 17 19  1  0
 19 20  1  0
 20 21  1  1
 20 22  1  0
 22 23  1  6
 22 24  1  0
 24 25  1  0
 25 26  1  0
 26 27  1  0
 26 28  1  0
 26 29  1  0
 29 30  1  0
 30 31  2  0
 31 32  1  0
 32 33  1  0
 33 34  1  0
 33 35  1  0
 33 36  1  0
 31 37  1  0
 37 38  1  0
 16 11  2  0
 21  2  1  0
 38 29  2  0
M  END
$$$$
