
     RDKit          3D

 38 40  0  0  0  0  0  0  0  0999 V2000
  -19.2686  -39.9067   -4.4349 C   0  0  0  0  0  0  0  0  0  0  0  0
  -18.9693  -39.7545   -5.9188 C   0  0  2  0  0  0  0  0  0  0  0  0
  -20.1753  -39.9699   -6.7783 C   0  0  0  0  0  0  0  0  0  0  0  0
  -21.4672  -39.7417   -6.0526 C   0  0  0  0  0  0  0  0  0  0  0  0
  -22.6045  -40.1049   -6.9656 C   0  0  0  0  0  0  0  0  0  0  0  0
  -23.6228  -40.9467   -6.2242 C   0  0  0  0  0  0  0  0  0  0  0  0
  -23.7489  -42.2559   -6.9360 C   0  0  0  0  0  0  0  0  0  0  0  0
  -22.6087  -43.1524   -6.5900 C   0  0  0  0  0  0  0  0  0  0  0  0
  -22.6535  -44.4481   -7.3612 C   0  0  0  0  0  0  0  0  0  0  0  0
  -22.0995  -44.3418   -8.6904 N   0  0  0  0  0  0  0  0  0  0  0  0
  -21.0087  -43.5923   -9.2287 C   0  0  0  0  0  0  0  0  0  0  0  0
  -19.7311  -43.3633   -8.7652 C   0  0  0  0  0  0  0  0  0  0  0  0
  -18.8773  -42.5882   -9.5228 C   0  0  0  0  0  0  0  0  0  0  0  0
  -19.3341  -42.0504  -10.7550 C   0  0  0  0  0  0  0  0  0  0  0  0
  -20.5922  -42.2545  -11.2490 C   0  0  0  0  0  0  0  0  0  0  0  0
  -21.4058  -43.0257  -10.4698 C   0  0  0  0  0  0  0  0  0  0  0  0
  -17.4848  -42.1775   -9.3157 C   0  0  0  0  0  0  0  0  0  0  0  0
  -16.6505  -42.2748  -10.3496 O   0  0  0  0  0  0  0  0  0  0  0  0
  -16.7974  -41.6674   -8.1823 N   0  0  0  0  0  0  0  0  0  0  0  0
  -17.0838  -40.4805   -7.4289 C   0  0  1  0  0  0  0  0  0  0  0  0
  -17.8753  -40.7791   -6.2101 C   0  0  0  0  0  0  0  0  0  0  0  0
  -15.7057  -39.8499   -7.1254 C   0  0  2  0  0  0  0  0  0  0  0  0
  -15.8698  -38.6746   -6.4022 O   0  0  0  0  0  0  0  0  0  0  0  0
  -14.9691  -39.5310   -8.3706 C   0  0  0  0  0  0  0  0  0  0  0  0
  -14.7240  -40.5430   -9.3025 N   0  0  0  0  0  0  0  0  0  0  0  0
  -13.5746  -40.5462  -10.1149 C   0  0  0  0  0  0  0  0  0  0  0  0
  -12.3710  -41.0766   -9.3893 C   0  0  0  0  0  0  0  0  0  0  0  0
  -13.7468  -41.4085  -11.3657 C   0  0  0  0  0  0  0  0  0  0  0  0
  -13.2411  -39.1645  -10.6135 C   0  0  0  0  0  0  0  0  0  0  0  0
  -13.8854  -38.5578  -11.6533 C   0  0  0  0  0  0  0  0  0  0  0  0
  -13.3253  -37.3065  -11.8277 C   0  0  0  0  0  0  0  0  0  0  0  0
  -13.7563  -36.3386  -12.8632 C   0  0  0  0  0  0  0  0  0  0  0  0
  -14.3722  -35.1038  -12.2925 C   0  0  0  0  0  0  0  0  0  0  0  0
  -14.7112  -34.1372  -13.4081 C   0  0  0  0  0  0  0  0  0  0  0  0
  -15.6574  -35.3775  -11.5392 C   0  0  0  0  0  0  0  0  0  0  0  0
  -13.3682  -34.4207  -11.3666 C   0  0  0  0  0  0  0  0  0  0  0  0
  -12.4029  -37.2009  -10.9293 O   0  0  0  0  0  0  0  0  0  0  0  0
  -12.3302  -38.2934  -10.1915 N   0  0  0  0  0  0  0  0  0  0  0  0
  2  1  1  1
  2  3  1  0
  3  4  1  0
  4  5  1  0
  5  6  1  0
  6  7  1  0
  7  8  1  0
  8  9  1  0
  9 10  1  0
 10 11  1  0
 11 12  1  0
 12 13  2  0
 13 14  1  0
 14 15  2  0
 15 16  1  0
 13 17  1  0
 17 18  2  0
 17 19  1  0
 19 20  1  0
 20 21  1  1
 20 22  1  0
 22 23  1  6
 22 24  1  0
 24 25  1  0
 25 26  1  0
 26 27  1  0
 26 28  1  0
 26 29  1  0
 29 30  1  0
 30 31  2  0
 31 32  1  0
 32 33  1  0
 33 34  1  0
 33 35  1  0
 33 36  1  0
 31 37  1  0
 37 38  1  0
 16 11  2  0
 21  2  1  0
 38 29  2  0
M  END
$$$$
