
     RDKit          3D

 38 40  0  0  0  0  0  0  0  0999 V2000
  -19.8913  -38.1549   -4.9181 C   0  0  0  0  0  0  0  0  0  0  0  0
  -19.5625  -38.8605   -6.2253 C   0  0  2  0  0  0  0  0  0  0  0  0
  -20.6739  -39.7406   -6.7044 C   0  0  0  0  0  0  0  0  0  0  0  0
  -22.0149  -39.3492   -6.1600 C   0  0  0  0  0  0  0  0  0  0  0  0
  -23.0302  -40.3661   -6.6004 C   0  0  0  0  0  0  0  0  0  0  0  0
  -23.9122  -40.7641   -5.4346 C   0  0  0  0  0  0  0  0  0  0  0  0
  -23.7733  -42.2391   -5.2303 C   0  0  0  0  0  0  0  0  0  0  0  0
  -22.5070  -42.5509   -4.5072 C   0  0  0  0  0  0  0  0  0  0  0  0
  -22.2880  -44.0366   -4.3646 C   0  0  0  0  0  0  0  0  0  0  0  0
  -21.7070  -44.6442   -5.5386 N   0  0  0  0  0  0  0  0  0  0  0  0
  -20.7458  -44.1870   -6.4915 C   0  0  0  0  0  0  0  0  0  0  0  0
  -19.5498  -43.5178   -6.3449 C   0  0  0  0  0  0  0  0  0  0  0  0
  -18.8170  -43.2097   -7.4726 C   0  0  0  0  0  0  0  0  0  0  0  0
  -19.3106  -43.5893   -8.7487 C   0  0  0  0  0  0  0  0  0  0  0  0
  -20.4905  -44.2536   -8.9360 C   0  0  0  0  0  0  0  0  0  0  0  0
  -21.1854  -44.5391   -7.7961 C   0  0  0  0  0  0  0  0  0  0  0  0
  -17.5298  -42.5291   -7.6476 C   0  0  0  0  0  0  0  0  0  0  0  0
  -16.6492  -43.0760   -8.4842 O   0  0  0  0  0  0  0  0  0  0  0  0
  -16.9921  -41.3418   -7.0833 N   0  0  0  0  0  0  0  0  0  0  0  0
  -17.5166  -40.0082   -7.1525 C   0  0  1  0  0  0  0  0  0  0  0  0
  -18.2923  -39.6574   -5.9374 C   0  0  0  0  0  0  0  0  0  0  0  0
  -16.2867  -39.0996   -7.3779 C   0  0  2  0  0  0  0  0  0  0  0  0
  -16.6789  -37.7666   -7.4028 O   0  0  0  0  0  0  0  0  0  0  0  0
  -15.6108  -39.4097   -8.6593 C   0  0  0  0  0  0  0  0  0  0  0  0
  -14.2656  -39.7878   -8.6528 N   0  0  0  0  0  0  0  0  0  0  0  0
  -13.5385  -39.9768   -9.8431 C   0  0  0  0  0  0  0  0  0  0  0  0
  -12.1858  -40.5786   -9.5896 C   0  0  0  0  0  0  0  0  0  0  0  0
  -14.2548  -40.9070  -10.8226 C   0  0  0  0  0  0  0  0  0  0  0  0
  -13.3357  -38.6809  -10.5837 C   0  0  0  0  0  0  0  0  0  0  0  0
  -14.2174  -38.1864  -11.5016 C   0  0  0  0  0  0  0  0  0  0  0  0
  -13.7146  -36.9873  -11.9699 C   0  0  0  0  0  0  0  0  0  0  0  0
  -14.3876  -36.1417  -12.9833 C   0  0  0  0  0  0  0  0  0  0  0  0
  -13.4526  -35.2172  -13.6910 C   0  0  0  0  0  0  0  0  0  0  0  0
  -12.3859  -36.0173  -14.4091 C   0  0  0  0  0  0  0  0  0  0  0  0
  -14.1422  -34.3632  -14.7347 C   0  0  0  0  0  0  0  0  0  0  0  0
  -12.7593  -34.3201  -12.6679 C   0  0  0  0  0  0  0  0  0  0  0  0
  -12.5967  -36.8031  -11.3491 O   0  0  0  0  0  0  0  0  0  0  0  0
  -12.3455  -37.7968  -10.5168 N   0  0  0  0  0  0  0  0  0  0  0  0
  2  1  1  1
  2  3  1  0
  3  4  1  0
  4  5  1  0
  5  6  1  0
  6  7  1  0
  7  8  1  0
  8  9  1  0
  9 10  1  0
 10 11  1  0
 11 12  1  0
 12 13  2  0
 13 14  1  0
 14 15  2  0
 15 16  1  0
 13 17  1  0
 17 18  2  0
 17 19  1  0
 19 20  1  0
 20 21  1  1
 20 22  1  0
 22 23  1  6
 22 24  1  0
 24 25  1  0
 25 26  1  0
 26 27  1  0
 26 28  1  0
 26 29  1  0
 29 30  1  0
 30 31  2  0
 31 32  1  0
 32 33  1  0
 33 34  1  0
 33 35  1  0
 33 36  1  0
 31 37  1  0
 37 38  1  0
 16 11  2  0
 21  2  1  0
 38 29  2  0
M  END
$$$$
