
     RDKit          3D

 38 40  0  0  0  0  0  0  0  0999 V2000
  -18.7806  -37.8706   -4.8566 C   0  0  0  0  0  0  0  0  0  0  0  0
  -18.8941  -38.3995   -6.2786 C   0  0  2  0  0  0  0  0  0  0  0  0
  -20.2169  -39.0427   -6.5538 C   0  0  0  0  0  0  0  0  0  0  0  0
  -21.3060  -38.5712   -5.6376 C   0  0  0  0  0  0  0  0  0  0  0  0
  -22.5501  -39.3668   -5.9170 C   0  0  0  0  0  0  0  0  0  0  0  0
  -23.1813  -39.8249   -4.6181 C   0  0  0  0  0  0  0  0  0  0  0  0
  -23.2421  -41.3191   -4.6336 C   0  0  0  0  0  0  0  0  0  0  0  0
  -21.9089  -41.9013   -4.3063 C   0  0  0  0  0  0  0  0  0  0  0  0
  -21.9097  -43.4067   -4.4030 C   0  0  0  0  0  0  0  0  0  0  0  0
  -21.7338  -43.8932   -5.7512 N   0  0  0  0  0  0  0  0  0  0  0  0
  -20.9663  -43.4206   -6.8596 C   0  0  0  0  0  0  0  0  0  0  0  0
  -19.6766  -42.9429   -6.9499 C   0  0  0  0  0  0  0  0  0  0  0  0
  -19.1939  -42.5595   -8.1843 C   0  0  0  0  0  0  0  0  0  0  0  0
  -20.0335  -42.6678   -9.3243 C   0  0  0  0  0  0  0  0  0  0  0  0
  -21.3167  -43.1364   -9.2765 C   0  0  0  0  0  0  0  0  0  0  0  0
  -21.7565  -43.5045   -8.0376 C   0  0  0  0  0  0  0  0  0  0  0  0
  -17.8918  -42.0321   -8.6052 C   0  0  0  0  0  0  0  0  0  0  0  0
  -17.3388  -42.5506   -9.7005 O   0  0  0  0  0  0  0  0  0  0  0  0
  -17.0472  -41.0273   -8.0629 N   0  0  0  0  0  0  0  0  0  0  0  0
  -17.3463  -39.6428   -7.8346 C   0  0  1  0  0  0  0  0  0  0  0  0
  -17.7408  -39.3891   -6.4270 C   0  0  0  0  0  0  0  0  0  0  0  0
  -16.0736  -38.8768   -8.2619 C   0  0  2  0  0  0  0  0  0  0  0  0
  -16.0298  -38.7631   -9.6462 O   0  0  0  0  0  0  0  0  0  0  0  0
  -14.8452  -39.5729   -7.8131 C   0  0  0  0  0  0  0  0  0  0  0  0
  -14.4329  -40.7334   -8.4732 N   0  0  0  0  0  0  0  0  0  0  0  0
  -13.3959  -40.7215   -9.4249 C   0  0  0  0  0  0  0  0  0  0  0  0
  -12.0683  -40.3813   -8.8100 C   0  0  0  0  0  0  0  0  0  0  0  0
  -13.2240  -42.0739  -10.1171 C   0  0  0  0  0  0  0  0  0  0  0  0
  -13.6622  -39.7292  -10.5264 C   0  0  0  0  0  0  0  0  0  0  0  0
  -12.7067  -38.9104  -11.0565 C   0  0  0  0  0  0  0  0  0  0  0  0
  -13.3023  -38.1448  -12.0408 C   0  0  0  0  0  0  0  0  0  0  0  0
  -12.5892  -37.1309  -12.8523 C   0  0  0  0  0  0  0  0  0  0  0  0
  -12.9045  -35.7283  -12.4487 C   0  0  0  0  0  0  0  0  0  0  0  0
  -14.3284  -35.3902  -12.8386 C   0  0  0  0  0  0  0  0  0  0  0  0
  -12.7898  -35.5023  -10.9554 C   0  0  0  0  0  0  0  0  0  0  0  0
  -11.9737  -34.7692  -13.1874 C   0  0  0  0  0  0  0  0  0  0  0  0
  -14.5417  -38.5081  -12.0735 O   0  0  0  0  0  0  0  0  0  0  0  0
  -14.7846  -39.4508  -11.1816 N   0  0  0  0  0  0  0  0  0  0  0  0
  2  1  1  1
  2  3  1  0
  3  4  1  0
  4  5  1  0
  5  6  1  0
  6  7  1  0
  7  8  1  0
  8  9  1  0
  9 10  1  0
 10 11  1  0
 11 12  1  0
 12 13  2  0
 13 14  1  0
 14 15  2  0
 15 16  1  0
 13 17  1  0
 17 18  2  0
 17 19  1  0
 19 20  1  0
 20 21  1  1
 20 22  1  0
 22 23  1  6
 22 24  1  0
 24 25  1  0
 25 26  1  0
 26 27  1  0
 26 28  1  0
 26 29  1  0
 29 30  1  0
 30 31  2  0
 31 32  1  0
 32 33  1  0
 33 34  1  0
 33 35  1  0
 33 36  1  0
 31 37  1  0
 37 38  1  0
 16 11  2  0
 21  2  1  0
 38 29  2  0
M  END
$$$$
