
     RDKit          3D

 38 40  0  0  0  0  0  0  0  0999 V2000
  -19.4089  -38.1662   -5.4008 C   0  0  0  0  0  0  0  0  0  0  0  0
  -19.3615  -38.9319   -6.7146 C   0  0  2  0  0  0  0  0  0  0  0  0
  -20.5948  -39.7441   -6.9568 C   0  0  0  0  0  0  0  0  0  0  0  0
  -21.7909  -39.2418   -6.2053 C   0  0  0  0  0  0  0  0  0  0  0  0
  -22.9320  -40.1961   -6.4205 C   0  0  0  0  0  0  0  0  0  0  0  0
  -23.6196  -40.4954   -5.1040 C   0  0  0  0  0  0  0  0  0  0  0  0
  -23.5434  -41.9698   -4.8655 C   0  0  0  0  0  0  0  0  0  0  0  0
  -22.1929  -42.3498   -4.3603 C   0  0  0  0  0  0  0  0  0  0  0  0
  -22.0497  -43.8425   -4.1960 C   0  0  0  0  0  0  0  0  0  0  0  0
  -21.7247  -44.5246   -5.4265 N   0  0  0  0  0  0  0  0  0  0  0  0
  -20.9181  -44.1658   -6.5497 C   0  0  0  0  0  0  0  0  0  0  0  0
  -19.6739  -43.5797   -6.6404 C   0  0  0  0  0  0  0  0  0  0  0  0
  -19.1320  -43.3583   -7.8898 C   0  0  0  0  0  0  0  0  0  0  0  0
  -19.8658  -43.7394   -9.0442 C   0  0  0  0  0  0  0  0  0  0  0  0
  -21.1010  -44.3228   -8.9965 C   0  0  0  0  0  0  0  0  0  0  0  0
  -21.6020  -44.5240   -7.7426 C   0  0  0  0  0  0  0  0  0  0  0  0
  -17.8540  -42.7771   -8.3133 C   0  0  0  0  0  0  0  0  0  0  0  0
  -17.1716  -43.4101   -9.2662 O   0  0  0  0  0  0  0  0  0  0  0  0
  -17.1493  -41.6150   -7.9006 N   0  0  0  0  0  0  0  0  0  0  0  0
  -17.5895  -40.2500   -7.9334 C   0  0  1  0  0  0  0  0  0  0  0  0
  -18.1152  -39.8087   -6.6181 C   0  0  0  0  0  0  0  0  0  0  0  0
  -16.3618  -39.4387   -8.4061 C   0  0  2  0  0  0  0  0  0  0  0  0
  -16.6968  -38.0952   -8.5241 O   0  0  0  0  0  0  0  0  0  0  0  0
  -15.8717  -39.9133   -9.7212 C   0  0  0  0  0  0  0  0  0  0  0  0
  -14.5312  -39.7203  -10.0654 N   0  0  0  0  0  0  0  0  0  0  0  0
  -14.0975  -39.7227  -11.4045 C   0  0  0  0  0  0  0  0  0  0  0  0
  -13.2148  -40.8989  -11.7108 C   0  0  0  0  0  0  0  0  0  0  0  0
  -15.2615  -39.7795  -12.3944 C   0  0  0  0  0  0  0  0  0  0  0  0
  -13.3325  -38.4705  -11.7444 C   0  0  0  0  0  0  0  0  0  0  0  0
  -11.9737  -38.4232  -11.8713 C   0  0  0  0  0  0  0  0  0  0  0  0
  -11.6222  -37.1256  -12.1917 C   0  0  0  0  0  0  0  0  0  0  0  0
  -10.2297  -36.6711  -12.4131 C   0  0  0  0  0  0  0  0  0  0  0  0
   -9.7312  -35.7616  -11.3389 C   0  0  0  0  0  0  0  0  0  0  0  0
  -10.3957  -36.1092  -10.0232 C   0  0  0  0  0  0  0  0  0  0  0  0
   -8.2361  -35.8676  -11.1205 C   0  0  0  0  0  0  0  0  0  0  0  0
  -10.0998  -34.3209  -11.6863 C   0  0  0  0  0  0  0  0  0  0  0  0
  -12.7283  -36.4602  -12.2461 O   0  0  0  0  0  0  0  0  0  0  0  0
  -13.7637  -37.2363  -11.9837 N   0  0  0  0  0  0  0  0  0  0  0  0
  2  1  1  1
  2  3  1  0
  3  4  1  0
  4  5  1  0
  5  6  1  0
  6  7  1  0
  7  8  1  0
  8  9  1  0
  9 10  1  0
 10 11  1  0
 11 12  1  0
 12 13  2  0
 13 14  1  0
 14 15  2  0
 15 16  1  0
 13 17  1  0
 17 18  2  0
 17 19  1  0
 19 20  1  0
 20 21  1  1
 20 22  1  0
 22 23  1  6
 22 24  1  0
 24 25  1  0
 25 26  1  0
 26 27  1  0
 26 28  1  0
 26 29  1  0
 29 30  1  0
 30 31  2  0
 31 32  1  0
 32 33  1  0
 33 34  1  0
 33 35  1  0
 33 36  1  0
 31 37  1  0
 37 38  1  0
 16 11  2  0
 21  2  1  0
 38 29  2  0
M  END
$$$$
