
     RDKit          3D

 38 40  0  0  0  0  0  0  0  0999 V2000
  -19.6984  -38.3008   -5.0053 C   0  0  0  0  0  0  0  0  0  0  0  0
  -19.3254  -38.8787   -6.3623 C   0  0  2  0  0  0  0  0  0  0  0  0
  -20.4657  -39.5869   -7.0238 C   0  0  0  0  0  0  0  0  0  0  0  0
  -21.8079  -39.1344   -6.5327 C   0  0  0  0  0  0  0  0  0  0  0  0
  -22.8678  -39.9915   -7.1659 C   0  0  0  0  0  0  0  0  0  0  0  0
  -23.8740  -40.4353   -6.1238 C   0  0  0  0  0  0  0  0  0  0  0  0
  -23.8805  -41.9305   -6.0926 C   0  0  0  0  0  0  0  0  0  0  0  0
  -22.7099  -42.4437   -5.3246 C   0  0  0  0  0  0  0  0  0  0  0  0
  -22.6329  -43.9501   -5.3502 C   0  0  0  0  0  0  0  0  0  0  0  0
  -22.0120  -44.4707   -6.5453 N   0  0  0  0  0  0  0  0  0  0  0  0
  -20.9396  -44.0006   -7.3638 C   0  0  0  0  0  0  0  0  0  0  0  0
  -19.7064  -43.4706   -7.0512 C   0  0  0  0  0  0  0  0  0  0  0  0
  -18.8593  -43.1058   -8.0773 C   0  0  0  0  0  0  0  0  0  0  0  0
  -19.2772  -43.2862   -9.4224 C   0  0  0  0  0  0  0  0  0  0  0  0
  -20.4907  -43.8082   -9.7736 C   0  0  0  0  0  0  0  0  0  0  0  0
  -21.2992  -44.1558   -8.7298 C   0  0  0  0  0  0  0  0  0  0  0  0
  -17.5079  -42.5361   -8.0752 C   0  0  0  0  0  0  0  0  0  0  0  0
  -16.6121  -43.0644   -8.9076 O   0  0  0  0  0  0  0  0  0  0  0  0
  -16.9177  -41.4790   -7.3326 N   0  0  0  0  0  0  0  0  0  0  0  0
  -17.3172  -40.1022   -7.2748 C   0  0  1  0  0  0  0  0  0  0  0  0
  -18.1570  -39.8216   -6.0844 C   0  0  0  0  0  0  0  0  0  0  0  0
  -15.9989  -39.2957   -7.2987 C   0  0  2  0  0  0  0  0  0  0  0  0
  -16.2402  -37.9796   -6.9232 O   0  0  0  0  0  0  0  0  0  0  0  0
  -15.3909  -39.2901   -8.6497 C   0  0  0  0  0  0  0  0  0  0  0  0
  -14.7209  -40.4281   -9.1065 N   0  0  0  0  0  0  0  0  0  0  0  0
  -13.6729  -40.3507  -10.0430 C   0  0  0  0  0  0  0  0  0  0  0  0
  -12.4267  -39.7584   -9.4492 C   0  0  0  0  0  0  0  0  0  0  0  0
  -13.2844  -41.7214  -10.5981 C   0  0  0  0  0  0  0  0  0  0  0  0
  -14.0550  -39.5185  -11.2389 C   0  0  0  0  0  0  0  0  0  0  0  0
  -13.4156  -38.3661  -11.5961 C   0  0  0  0  0  0  0  0  0  0  0  0
  -14.0253  -37.8783  -12.7364 C   0  0  0  0  0  0  0  0  0  0  0  0
  -13.6146  -36.6375  -13.4339 C   0  0  0  0  0  0  0  0  0  0  0  0
  -13.2216  -35.5413  -12.4993 C   0  0  0  0  0  0  0  0  0  0  0  0
  -14.3565  -35.2551  -11.5383 C   0  0  0  0  0  0  0  0  0  0  0  0
  -12.0083  -35.8856  -11.6604 C   0  0  0  0  0  0  0  0  0  0  0  0
  -12.9500  -34.2692  -13.2993 C   0  0  0  0  0  0  0  0  0  0  0  0
  -14.9702  -38.7126  -13.0196 O   0  0  0  0  0  0  0  0  0  0  0  0
  -15.0113  -39.6999  -12.1440 N   0  0  0  0  0  0  0  0  0  0  0  0
  2  1  1  1
  2  3  1  0
  3  4  1  0
  4  5  1  0
  5  6  1  0
  6  7  1  0
  7  8  1  0
  8  9  1  0
  9 10  1  0
 10 11  1  0
 11 12  1  0
 12 13  2  0
 13 14  1  0
 14 15  2  0
 15 16  1  0
 13 17  1  0
 17 18  2  0
 17 19  1  0
 19 20  1  0
 20 21  1  1
 20 22  1  0
 22 23  1  6
 22 24  1  0
 24 25  1  0
 25 26  1  0
 26 27  1  0
 26 28  1  0
 26 29  1  0
 29 30  1  0
 30 31  2  0
 31 32  1  0
 32 33  1  0
 33 34  1  0
 33 35  1  0
 33 36  1  0
 31 37  1  0
 37 38  1  0
 16 11  2  0
 21  2  1  0
 38 29  2  0
M  END
$$$$
