
     RDKit          3D

 38 40  0  0  0  0  0  0  0  0999 V2000
  -19.9252  -38.2708   -5.0562 C   0  0  0  0  0  0  0  0  0  0  0  0
  -19.6186  -38.9085   -6.4029 C   0  0  2  0  0  0  0  0  0  0  0  0
  -20.7614  -39.7139   -6.9364 C   0  0  0  0  0  0  0  0  0  0  0  0
  -22.0884  -39.3039   -6.3719 C   0  0  0  0  0  0  0  0  0  0  0  0
  -23.1407  -40.2518   -6.8749 C   0  0  0  0  0  0  0  0  0  0  0  0
  -24.0425  -40.6846   -5.7370 C   0  0  0  0  0  0  0  0  0  0  0  0
  -23.9620  -42.1735   -5.6219 C   0  0  0  0  0  0  0  0  0  0  0  0
  -22.7120  -42.5777   -4.9165 C   0  0  0  0  0  0  0  0  0  0  0  0
  -22.5517  -44.0767   -4.8636 C   0  0  0  0  0  0  0  0  0  0  0  0
  -21.9898  -44.6348   -6.0710 N   0  0  0  0  0  0  0  0  0  0  0  0
  -21.0074  -44.1589   -6.9927 C   0  0  0  0  0  0  0  0  0  0  0  0
  -19.7870  -43.5471   -6.8037 C   0  0  0  0  0  0  0  0  0  0  0  0
  -19.0379  -43.2004   -7.9093 C   0  0  0  0  0  0  0  0  0  0  0  0
  -19.5405  -43.4828   -9.2069 C   0  0  0  0  0  0  0  0  0  0  0  0
  -20.7446  -44.0879   -9.4363 C   0  0  0  0  0  0  0  0  0  0  0  0
  -21.4549  -44.4142   -8.3171 C   0  0  0  0  0  0  0  0  0  0  0  0
  -17.7244  -42.5615   -8.0404 C   0  0  0  0  0  0  0  0  0  0  0  0
  -16.8623  -43.0911   -8.9069 O   0  0  0  0  0  0  0  0  0  0  0  0
  -17.1433  -41.4324   -7.4044 N   0  0  0  0  0  0  0  0  0  0  0  0
  -17.6150  -40.0775   -7.3939 C   0  0  1  0  0  0  0  0  0  0  0  0
  -18.3816  -39.7705   -6.1613 C   0  0  0  0  0  0  0  0  0  0  0  0
  -16.3497  -39.2058   -7.5617 C   0  0  2  0  0  0  0  0  0  0  0  0
  -16.7067  -37.8680   -7.6801 O   0  0  0  0  0  0  0  0  0  0  0  0
  -15.5818  -39.5910   -8.7687 C   0  0  0  0  0  0  0  0  0  0  0  0
  -14.2537  -40.0044   -8.6353 N   0  0  0  0  0  0  0  0  0  0  0  0
  -13.3803  -40.0742   -9.7369 C   0  0  0  0  0  0  0  0  0  0  0  0
  -12.1547  -40.8888   -9.4359 C   0  0  0  0  0  0  0  0  0  0  0  0
  -14.0374  -40.7089  -10.9629 C   0  0  0  0  0  0  0  0  0  0  0  0
  -12.9288  -38.7063  -10.1771 C   0  0  0  0  0  0  0  0  0  0  0  0
  -12.6583  -38.3784  -11.4748 C   0  0  0  0  0  0  0  0  0  0  0  0
  -12.2797  -37.0497  -11.5068 C   0  0  0  0  0  0  0  0  0  0  0  0
  -11.9055  -36.3204  -12.7409 C   0  0  0  0  0  0  0  0  0  0  0  0
  -12.6640  -35.0472  -12.9232 C   0  0  0  0  0  0  0  0  0  0  0  0
  -13.6769  -34.8895  -11.8084 C   0  0  0  0  0  0  0  0  0  0  0  0
  -11.7767  -33.8201  -12.8910 C   0  0  0  0  0  0  0  0  0  0  0  0
  -13.4245  -35.0980  -14.2465 C   0  0  0  0  0  0  0  0  0  0  0  0
  -12.3310  -36.6353  -10.2842 O   0  0  0  0  0  0  0  0  0  0  0  0
  -12.7146  -37.6014   -9.4701 N   0  0  0  0  0  0  0  0  0  0  0  0
  2  1  1  1
  2  3  1  0
  3  4  1  0
  4  5  1  0
  5  6  1  0
  6  7  1  0
  7  8  1  0
  8  9  1  0
  9 10  1  0
 10 11  1  0
 11 12  1  0
 12 13  2  0
 13 14  1  0
 14 15  2  0
 15 16  1  0
 13 17  1  0
 17 18  2  0
 17 19  1  0
 19 20  1  0
 20 21  1  1
 20 22  1  0
 22 23  1  6
 22 24  1  0
 24 25  1  0
 25 26  1  0
 26 27  1  0
 26 28  1  0
 26 29  1  0
 29 30  1  0
 30 31  2  0
 31 32  1  0
 32 33  1  0
 33 34  1  0
 33 35  1  0
 33 36  1  0
 31 37  1  0
 37 38  1  0
 16 11  2  0
 21  2  1  0
 38 29  2  0
M  END
$$$$
