
     RDKit          3D

 38 40  0  0  0  0  0  0  0  0999 V2000
  -19.6674  -38.1904   -4.8772 C   0  0  0  0  0  0  0  0  0  0  0  0
  -19.2589  -38.9411   -6.1358 C   0  0  2  0  0  0  0  0  0  0  0  0
  -20.3811  -39.7353   -6.7268 C   0  0  0  0  0  0  0  0  0  0  0  0
  -21.7360  -39.2273   -6.3344 C   0  0  0  0  0  0  0  0  0  0  0  0
  -22.7785  -40.1650   -6.8756 C   0  0  0  0  0  0  0  0  0  0  0  0
  -23.8110  -40.4713   -5.8100 C   0  0  0  0  0  0  0  0  0  0  0  0
  -23.8174  -41.9492   -5.5814 C   0  0  0  0  0  0  0  0  0  0  0  0
  -22.6667  -42.3516   -4.7226 C   0  0  0  0  0  0  0  0  0  0  0  0
  -22.5880  -43.8477   -4.5466 C   0  0  0  0  0  0  0  0  0  0  0  0
  -21.9359  -44.5193   -5.6461 N   0  0  0  0  0  0  0  0  0  0  0  0
  -20.8430  -44.1571   -6.4919 C   0  0  0  0  0  0  0  0  0  0  0  0
  -19.6187  -43.5853   -6.2207 C   0  0  0  0  0  0  0  0  0  0  0  0
  -18.7455  -43.3559   -7.2640 C   0  0  0  0  0  0  0  0  0  0  0  0
  -19.1283  -43.7144   -8.5836 C   0  0  0  0  0  0  0  0  0  0  0  0
  -20.3319  -44.2832   -8.8936 C   0  0  0  0  0  0  0  0  0  0  0  0
  -21.1669  -44.4930   -7.8341 C   0  0  0  0  0  0  0  0  0  0  0  0
  -17.3951  -42.7853   -7.3027 C   0  0  0  0  0  0  0  0  0  0  0  0
  -16.4776  -43.4154   -8.0346 O   0  0  0  0  0  0  0  0  0  0  0  0
  -16.8251  -41.6369   -6.6916 N   0  0  0  0  0  0  0  0  0  0  0  0
  -17.2269  -40.2663   -6.8268 C   0  0  1  0  0  0  0  0  0  0  0  0
  -18.0975  -39.8341   -5.7058 C   0  0  0  0  0  0  0  0  0  0  0  0
  -15.9089  -39.4646   -6.9234 C   0  0  2  0  0  0  0  0  0  0  0  0
  -16.1678  -38.1783   -7.3815 O   0  0  0  0  0  0  0  0  0  0  0  0
  -14.9509  -40.1059   -7.8538 C   0  0  0  0  0  0  0  0  0  0  0  0
  -14.1640  -39.3075   -8.6880 N   0  0  0  0  0  0  0  0  0  0  0  0
  -14.0556  -39.5531  -10.0698 C   0  0  0  0  0  0  0  0  0  0  0  0
  -13.3462  -40.8448  -10.3604 C   0  0  0  0  0  0  0  0  0  0  0  0
  -15.4195  -39.6390  -10.7556 C   0  0  0  0  0  0  0  0  0  0  0  0
  -13.3121  -38.4492  -10.7751 C   0  0  0  0  0  0  0  0  0  0  0  0
  -12.8466  -38.5462  -12.0551 C   0  0  0  0  0  0  0  0  0  0  0  0
  -12.2256  -37.3530  -12.3724 C   0  0  0  0  0  0  0  0  0  0  0  0
  -11.5908  -37.0671  -13.6801 C   0  0  0  0  0  0  0  0  0  0  0  0
  -12.0666  -35.7936  -14.2977 C   0  0  0  0  0  0  0  0  0  0  0  0
  -13.3800  -36.0301  -15.0138 C   0  0  0  0  0  0  0  0  0  0  0  0
  -12.3087  -34.6973  -13.2810 C   0  0  0  0  0  0  0  0  0  0  0  0
  -11.0457  -35.3215  -15.3306 C   0  0  0  0  0  0  0  0  0  0  0  0
  -12.3306  -36.6068  -11.3230 O   0  0  0  0  0  0  0  0  0  0  0  0
  -12.9734  -37.2344  -10.3554 N   0  0  0  0  0  0  0  0  0  0  0  0
  2  1  1  1
  2  3  1  0
  3  4  1  0
  4  5  1  0
  5  6  1  0
  6  7  1  0
  7  8  1  0
  8  9  1  0
  9 10  1  0
 10 11  1  0
 11 12  1  0
 12 13  2  0
 13 14  1  0
 14 15  2  0
 15 16  1  0
 13 17  1  0
 17 18  2  0
 17 19  1  0
 19 20  1  0
 20 21  1  1
 20 22  1  0
 22 23  1  6
 22 24  1  0
 24 25  1  0
 25 26  1  0
 26 27  1  0
 26 28  1  0
 26 29  1  0
 29 30  1  0
 30 31  2  0
 31 32  1  0
 32 33  1  0
 33 34  1  0
 33 35  1  0
 33 36  1  0
 31 37  1  0
 37 38  1  0
 16 11  2  0
 21  2  1  0
 38 29  2  0
M  END
$$$$
