
     RDKit          3D

 38 40  0  0  0  0  0  0  0  0999 V2000
  -19.4531  -37.5941   -5.1537 C   0  0  0  0  0  0  0  0  0  0  0  0
  -19.3632  -38.1773   -6.5560 C   0  0  2  0  0  0  0  0  0  0  0  0
  -20.5505  -39.0158   -6.9121 C   0  0  0  0  0  0  0  0  0  0  0  0
  -21.7726  -38.6814   -6.1107 C   0  0  0  0  0  0  0  0  0  0  0  0
  -22.8600  -39.6592   -6.4578 C   0  0  0  0  0  0  0  0  0  0  0  0
  -23.5313  -40.1649   -5.1972 C   0  0  0  0  0  0  0  0  0  0  0  0
  -23.3753  -41.6516   -5.1531 C   0  0  0  0  0  0  0  0  0  0  0  0
  -22.0065  -42.0215   -4.6914 C   0  0  0  0  0  0  0  0  0  0  0  0
  -21.7826  -43.5129   -4.7227 C   0  0  0  0  0  0  0  0  0  0  0  0
  -21.4202  -44.0094   -6.0293 N   0  0  0  0  0  0  0  0  0  0  0  0
  -20.6334  -43.4636   -7.0895 C   0  0  0  0  0  0  0  0  0  0  0  0
  -19.4229  -42.8048   -7.0930 C   0  0  0  0  0  0  0  0  0  0  0  0
  -18.8929  -42.3927   -8.2984 C   0  0  0  0  0  0  0  0  0  0  0  0
  -19.6041  -42.6580   -9.4985 C   0  0  0  0  0  0  0  0  0  0  0  0
  -20.8058  -43.3082   -9.5373 C   0  0  0  0  0  0  0  0  0  0  0  0
  -21.2961  -43.6987   -8.3244 C   0  0  0  0  0  0  0  0  0  0  0  0
  -17.6480  -41.6931   -8.6322 C   0  0  0  0  0  0  0  0  0  0  0  0
  -16.9315  -42.1582   -9.6544 O   0  0  0  0  0  0  0  0  0  0  0  0
  -17.0077  -40.5590   -8.0655 N   0  0  0  0  0  0  0  0  0  0  0  0
  -17.5214  -39.2271   -7.9229 C   0  0  1  0  0  0  0  0  0  0  0  0
  -18.0712  -38.9910   -6.5653 C   0  0  0  0  0  0  0  0  0  0  0  0
  -16.3392  -38.2961   -8.2758 C   0  0  2  0  0  0  0  0  0  0  0  0
  -15.8971  -38.5581   -9.5670 O   0  0  0  0  0  0  0  0  0  0  0  0
  -15.2015  -38.4882   -7.3465 C   0  0  0  0  0  0  0  0  0  0  0  0
  -14.2760  -39.5054   -7.5942 N   0  0  0  0  0  0  0  0  0  0  0  0
  -13.7953  -39.7770   -8.8889 C   0  0  0  0  0  0  0  0  0  0  0  0
  -12.5929  -38.9444   -9.2317 C   0  0  0  0  0  0  0  0  0  0  0  0
  -13.3796  -41.2382   -9.0621 C   0  0  0  0  0  0  0  0  0  0  0  0
  -14.8462  -39.5238   -9.9378 C   0  0  0  0  0  0  0  0  0  0  0  0
  -16.1829  -39.4484   -9.6690 C   0  0  0  0  0  0  0  0  0  0  0  0
  -16.8418  -39.2019  -10.8585 C   0  0  0  0  0  0  0  0  0  0  0  0
  -18.3106  -39.0523  -10.9808 C   0  0  0  0  0  0  0  0  0  0  0  0
  -18.8940  -39.8694  -12.0860 C   0  0  0  0  0  0  0  0  0  0  0  0
  -18.5290  -41.3267  -11.8942 C   0  0  0  0  0  0  0  0  0  0  0  0
  -20.4059  -39.7961  -12.1416 C   0  0  0  0  0  0  0  0  0  0  0  0
  -18.3069  -39.4085  -13.4183 C   0  0  0  0  0  0  0  0  0  0  0  0
  -15.9253  -39.1387  -11.7668 O   0  0  0  0  0  0  0  0  0  0  0  0
  -14.7264  -39.3271  -11.2468 N   0  0  0  0  0  0  0  0  0  0  0  0
  2  1  1  1
  2  3  1  0
  3  4  1  0
  4  5  1  0
  5  6  1  0
  6  7  1  0
  7  8  1  0
  8  9  1  0
  9 10  1  0
 10 11  1  0
 11 12  1  0
 12 13  2  0
 13 14  1  0
 14 15  2  0
 15 16  1  0
 13 17  1  0
 17 18  2  0
 17 19  1  0
 19 20  1  0
 20 21  1  1
 20 22  1  0
 22 23  1  6
 22 24  1  0
 24 25  1  0
 25 26  1  0
 26 27  1  0
 26 28  1  0
 26 29  1  0
 29 30  1  0
 30 31  2  0
 31 32  1  0
 32 33  1  0
 33 34  1  0
 33 35  1  0
 33 36  1  0
 31 37  1  0
 37 38  1  0
 16 11  2  0
 21  2  1  0
 38 29  2  0
M  END
$$$$
