
     RDKit          3D

 38 40  0  0  0  0  0  0  0  0999 V2000
  -19.2604  -37.2517   -5.8336 C   0  0  0  0  0  0  0  0  0  0  0  0
  -19.1746  -38.3097   -6.9236 C   0  0  2  0  0  0  0  0  0  0  0  0
  -20.4101  -39.1489   -7.0152 C   0  0  0  0  0  0  0  0  0  0  0  0
  -21.6262  -38.4745   -6.4549 C   0  0  0  0  0  0  0  0  0  0  0  0
  -22.7728  -39.4458   -6.4825 C   0  0  0  0  0  0  0  0  0  0  0  0
  -23.5149  -39.4175   -5.1620 C   0  0  0  0  0  0  0  0  0  0  0  0
  -23.4708  -40.7925   -4.5755 C   0  0  0  0  0  0  0  0  0  0  0  0
  -22.1467  -41.0486   -3.9394 C   0  0  0  0  0  0  0  0  0  0  0  0
  -22.0331  -42.4595   -3.4178 C   0  0  0  0  0  0  0  0  0  0  0  0
  -21.6718  -43.4181   -4.4355 N   0  0  0  0  0  0  0  0  0  0  0  0
  -20.8172  -43.3429   -5.5780 C   0  0  0  0  0  0  0  0  0  0  0  0
  -19.5616  -42.8030   -5.7549 C   0  0  0  0  0  0  0  0  0  0  0  0
  -18.9688  -42.8899   -6.9978 C   0  0  0  0  0  0  0  0  0  0  0  0
  -19.6637  -43.5316   -8.0569 C   0  0  0  0  0  0  0  0  0  0  0  0
  -20.9087  -44.0795   -7.9220 C   0  0  0  0  0  0  0  0  0  0  0  0
  -21.4605  -43.9720   -6.6779 C   0  0  0  0  0  0  0  0  0  0  0  0
  -17.6667  -42.4343   -7.4952 C   0  0  0  0  0  0  0  0  0  0  0  0
  -16.9581  -43.2809   -8.2407 O   0  0  0  0  0  0  0  0  0  0  0  0
  -16.9603  -41.2115   -7.3433 N   0  0  0  0  0  0  0  0  0  0  0  0
  -17.3778  -39.8913   -7.7190 C   0  0  1  0  0  0  0  0  0  0  0  0
  -17.9466  -39.1453   -6.5696 C   0  0  0  0  0  0  0  0  0  0  0  0
  -16.1204  -39.2239   -8.3211 C   0  0  2  0  0  0  0  0  0  0  0  0
  -16.4916  -38.2916   -9.2825 O   0  0  0  0  0  0  0  0  0  0  0  0
  -15.2299  -40.2211   -8.9593 C   0  0  0  0  0  0  0  0  0  0  0  0
  -13.8682  -39.9389   -9.0954 N   0  0  0  0  0  0  0  0  0  0  0  0
  -13.1105  -40.4249  -10.1776 C   0  0  0  0  0  0  0  0  0  0  0  0
  -11.7111  -40.7879   -9.7700 C   0  0  0  0  0  0  0  0  0  0  0  0
  -13.7235  -41.6787  -10.8023 C   0  0  0  0  0  0  0  0  0  0  0  0
  -13.0197  -39.4155  -11.2918 C   0  0  0  0  0  0  0  0  0  0  0  0
  -12.2209  -38.3088  -11.2489 C   0  0  0  0  0  0  0  0  0  0  0  0
  -12.3864  -37.6196  -12.4353 C   0  0  0  0  0  0  0  0  0  0  0  0
  -11.6849  -36.3584  -12.7700 C   0  0  0  0  0  0  0  0  0  0  0  0
  -12.6159  -35.2220  -13.0374 C   0  0  0  0  0  0  0  0  0  0  0  0
  -11.8219  -33.9763  -13.3715 C   0  0  0  0  0  0  0  0  0  0  0  0
  -13.5449  -35.4805  -14.2054 C   0  0  0  0  0  0  0  0  0  0  0  0
  -13.4356  -34.9349  -11.7814 C   0  0  0  0  0  0  0  0  0  0  0  0
  -13.2402  -38.2999  -13.1262 O   0  0  0  0  0  0  0  0  0  0  0  0
  -13.6348  -39.3751  -12.4693 N   0  0  0  0  0  0  0  0  0  0  0  0
  2  1  1  1
  2  3  1  0
  3  4  1  0
  4  5  1  0
  5  6  1  0
  6  7  1  0
  7  8  1  0
  8  9  1  0
  9 10  1  0
 10 11  1  0
 11 12  1  0
 12 13  2  0
 13 14  1  0
 14 15  2  0
 15 16  1  0
 13 17  1  0
 17 18  2  0
 17 19  1  0
 19 20  1  0
 20 21  1  1
 20 22  1  0
 22 23  1  6
 22 24  1  0
 24 25  1  0
 25 26  1  0
 26 27  1  0
 26 28  1  0
 26 29  1  0
 29 30  1  0
 30 31  2  0
 31 32  1  0
 32 33  1  0
 33 34  1  0
 33 35  1  0
 33 36  1  0
 31 37  1  0
 37 38  1  0
 16 11  2  0
 21  2  1  0
 38 29  2  0
M  END
$$$$
