
     RDKit          3D

 38 39  0  0  0  0  0  0  0  0999 V2000
  -12.0132  -40.5423   -7.7666 C   0  0  0  0  0  0  0  0  0  0  0  0
  -13.3286  -41.2660   -7.9599 C   0  0  2  0  0  0  0  0  0  0  0  0
  -13.1383  -42.5681   -8.6187 C   0  0  0  0  0  0  0  0  0  0  0  0
  -12.5068  -42.5991   -9.9501 C   0  0  0  0  0  0  0  0  0  0  0  0
  -13.1893  -43.6752  -10.8041 C   0  0  0  0  0  0  0  0  0  0  0  0
  -12.7076  -45.0520  -10.5192 C   0  0  0  0  0  0  0  0  0  0  0  0
  -13.4607  -45.7987   -9.4689 C   0  0  0  0  0  0  0  0  0  0  0  0
  -14.9330  -45.9438   -9.7267 C   0  0  0  0  0  0  0  0  0  0  0  0
  -15.7097  -45.8572   -8.4029 C   0  0  0  0  0  0  0  0  0  0  0  0
  -17.1575  -46.0310   -8.5980 C   0  0  0  0  0  0  0  0  0  0  0  0
  -18.0263  -44.9360   -8.1756 C   0  0  0  0  0  0  0  0  0  0  0  0
  -18.5503  -45.0124   -7.0290 O   0  0  0  0  0  0  0  0  0  0  0  0
  -18.3623  -43.7673   -8.9144 N   0  0  0  0  0  0  0  0  0  0  0  0
  -19.6445  -43.0928   -8.8284 C   0  0  0  0  0  0  0  0  0  0  0  0
  -17.4289  -43.1333   -9.8401 C   0  0  1  0  0  0  0  0  0  0  0  0
  -17.6725  -43.6488  -11.2656 C   0  0  0  0  0  0  0  0  0  0  0  0
  -17.5712  -41.6658   -9.9156 C   0  0  0  0  0  0  0  0  0  0  0  0
  -18.6586  -41.2032  -10.3395 O   0  0  0  0  0  0  0  0  0  0  0  0
  -16.5790  -40.7279   -9.5489 N   0  0  0  0  0  0  0  0  0  0  0  0
  -15.7679  -40.7711   -8.3542 C   0  0  1  0  0  0  0  0  0  0  0  0
  -14.3428  -40.3334   -8.5602 C   0  0  0  0  0  0  0  0  0  0  0  0
  -16.5132  -39.8624   -7.3523 C   0  0  2  0  0  0  0  0  0  0  0  0
  -16.6928  -40.5684   -6.1599 O   0  0  0  0  0  0  0  0  0  0  0  0
  -17.8542  -39.4833   -7.8799 C   0  0  0  0  0  0  0  0  0  0  0  0
  -17.9695  -38.2964   -8.6277 N   0  0  0  0  0  0  0  0  0  0  0  0
  -19.1621  -37.5338   -8.5494 C   0  0  0  0  0  0  0  0  0  0  0  0
  -18.8971  -36.0384   -8.4635 C   0  0  0  0  0  0  0  0  0  0  0  0
  -20.0672  -37.9686   -7.4607 C   0  0  0  0  0  0  0  0  0  0  0  0
  -19.8715  -37.7227   -9.8844 C   0  0  0  0  0  0  0  0  0  0  0  0
  -19.4209  -37.4134  -11.1409 C   0  0  0  0  0  0  0  0  0  0  0  0
  -20.4316  -37.7661  -12.0475 C   0  0  0  0  0  0  0  0  0  0  0  0
  -20.3360  -37.5896  -13.5193 C   0  0  0  0  0  0  0  0  0  0  0  0
  -20.5174  -36.1521  -13.9513 C   0  0  0  0  0  0  0  0  0  0  0  0
  -20.4859  -35.3323  -12.6543 C   0  0  0  0  0  0  0  0  0  0  0  0
  -21.8436  -35.9101  -14.6007 C   0  0  0  0  0  0  0  0  0  0  0  0
  -19.4244  -35.6392  -14.8297 C   0  0  0  0  0  0  0  0  0  0  0  0
  -21.3942  -38.2470  -11.3320 O   0  0  0  0  0  0  0  0  0  0  0  0
  -21.1106  -38.2413  -10.0583 N   0  0  0  0  0  0  0  0  0  0  0  0
  2  1  1  6
  2  3  1  0
  3  4  1  0
  4  5  1  0
  5  6  1  0
  6  7  1  0
  7  8  1  0
  8  9  1  0
  9 10  1  0
 10 11  1  0
 11 12  2  0
 11 13  1  0
 13 14  1  0
 13 15  1  0
 15 16  1  6
 15 17  1  0
 17 18  2  0
 17 19  1  0
 19 20  1  0
 20 21  1  6
 20 22  1  0
 22 23  1  1
 22 24  1  0
 24 25  1  0
 25 26  1  0
 26 27  1  0
 26 28  1  0
 26 29  1  0
 29 30  1  0
 30 31  2  0
 31 32  1  0
 32 33  1  0
 33 34  1  0
 33 35  1  0
 33 36  1  0
 31 37  1  0
 37 38  1  0
 21  2  1  0
 38 29  2  0
M  END
$$$$
