
     RDKit          3D

 38 39  0  0  0  0  0  0  0  0999 V2000
  -11.9610  -42.1333   -7.4925 C   0  0  0  0  0  0  0  0  0  0  0  0
  -13.3802  -42.4747   -7.8933 C   0  0  2  0  0  0  0  0  0  0  0  0
  -13.4265  -43.6601   -8.7640 C   0  0  0  0  0  0  0  0  0  0  0  0
  -12.6861  -43.6284  -10.0381 C   0  0  0  0  0  0  0  0  0  0  0  0
  -13.5058  -44.3542  -11.1127 C   0  0  0  0  0  0  0  0  0  0  0  0
  -13.3834  -45.8341  -11.0530 C   0  0  0  0  0  0  0  0  0  0  0  0
  -14.3906  -46.5347  -10.2030 C   0  0  0  0  0  0  0  0  0  0  0  0
  -15.8228  -46.2742  -10.5718 C   0  0  0  0  0  0  0  0  0  0  0  0
  -16.6902  -46.2163   -9.3039 C   0  0  0  0  0  0  0  0  0  0  0  0
  -18.1116  -45.9992   -9.6150 C   0  0  0  0  0  0  0  0  0  0  0  0
  -18.7455  -44.8088   -9.0550 C   0  0  0  0  0  0  0  0  0  0  0  0
  -19.3873  -44.9396   -7.9752 O   0  0  0  0  0  0  0  0  0  0  0  0
  -18.7280  -43.4901   -9.5891 N   0  0  0  0  0  0  0  0  0  0  0  0
  -19.8238  -42.5473   -9.4606 C   0  0  0  0  0  0  0  0  0  0  0  0
  -17.5848  -42.9611  -10.3262 C   0  0  1  0  0  0  0  0  0  0  0  0
  -17.7929  -43.1651  -11.8336 C   0  0  0  0  0  0  0  0  0  0  0  0
  -17.3791  -41.5107  -10.1434 C   0  0  0  0  0  0  0  0  0  0  0  0
  -18.2828  -40.7356  -10.5418 O   0  0  0  0  0  0  0  0  0  0  0  0
  -16.2415  -40.9138   -9.5533 N   0  0  0  0  0  0  0  0  0  0  0  0
  -15.5883  -41.3450   -8.3390 C   0  0  1  0  0  0  0  0  0  0  0  0
  -14.0875  -41.2393   -8.3753 C   0  0  0  0  0  0  0  0  0  0  0  0
  -16.2043  -40.4563   -7.2365 C   0  0  2  0  0  0  0  0  0  0  0  0
  -16.5500  -41.2677   -6.1526 O   0  0  0  0  0  0  0  0  0  0  0  0
  -17.4378  -39.7817   -7.7300 C   0  0  0  0  0  0  0  0  0  0  0  0
  -17.3654  -38.4181   -8.0717 N   0  0  0  0  0  0  0  0  0  0  0  0
  -18.5426  -37.7319   -8.4633 C   0  0  0  0  0  0  0  0  0  0  0  0
  -19.2285  -37.0334   -7.2991 C   0  0  0  0  0  0  0  0  0  0  0  0
  -19.5023  -38.5853   -9.2009 C   0  0  0  0  0  0  0  0  0  0  0  0
  -18.0869  -36.6007   -9.3763 C   0  0  0  0  0  0  0  0  0  0  0  0
  -16.8520  -36.0120   -9.4537 C   0  0  0  0  0  0  0  0  0  0  0  0
  -16.9234  -35.0155  -10.4385 C   0  0  0  0  0  0  0  0  0  0  0  0
  -15.7883  -34.1407  -10.8293 C   0  0  0  0  0  0  0  0  0  0  0  0
  -16.0191  -33.4318  -12.1446 C   0  0  0  0  0  0  0  0  0  0  0  0
  -14.7797  -32.5510  -12.3530 C   0  0  0  0  0  0  0  0  0  0  0  0
  -17.2098  -32.5261  -12.1081 C   0  0  0  0  0  0  0  0  0  0  0  0
  -16.1178  -34.3479  -13.3194 C   0  0  0  0  0  0  0  0  0  0  0  0
  -18.1353  -35.0487  -10.8857 O   0  0  0  0  0  0  0  0  0  0  0  0
  -18.8537  -35.9622  -10.2923 N   0  0  0  0  0  0  0  0  0  0  0  0
  2  1  1  6
  2  3  1  0
  3  4  1  0
  4  5  1  0
  5  6  1  0
  6  7  1  0
  7  8  1  0
  8  9  1  0
  9 10  1  0
 10 11  1  0
 11 12  2  0
 11 13  1  0
 13 14  1  0
 13 15  1  0
 15 16  1  6
 15 17  1  0
 17 18  2  0
 17 19  1  0
 19 20  1  0
 20 21  1  6
 20 22  1  0
 22 23  1  1
 22 24  1  0
 24 25  1  0
 25 26  1  0
 26 27  1  0
 26 28  1  0
 26 29  1  0
 29 30  1  0
 30 31  2  0
 31 32  1  0
 32 33  1  0
 33 34  1  0
 33 35  1  0
 33 36  1  0
 31 37  1  0
 37 38  1  0
 21  2  1  0
 38 29  2  0
M  END
$$$$
