
     RDKit          3D

 38 39  0  0  0  0  0  0  0  0999 V2000
  -20.6884  -37.3521   -5.9482 C   0  0  0  0  0  0  0  0  0  0  0  0
  -20.2083  -38.6159   -6.6293 C   0  0  2  0  0  0  0  0  0  0  0  0
  -21.2859  -39.6114   -6.7445 C   0  0  0  0  0  0  0  0  0  0  0  0
  -21.9404  -40.0879   -5.5129 C   0  0  0  0  0  0  0  0  0  0  0  0
  -22.2442  -41.5850   -5.6532 C   0  0  0  0  0  0  0  0  0  0  0  0
  -23.4713  -41.8696   -6.4417 C   0  0  0  0  0  0  0  0  0  0  0  0
  -23.2715  -42.0536   -7.9094 C   0  0  0  0  0  0  0  0  0  0  0  0
  -22.3028  -43.1373   -8.2865 C   0  0  0  0  0  0  0  0  0  0  0  0
  -21.5048  -42.7193   -9.5321 C   0  0  0  0  0  0  0  0  0  0  0  0
  -20.5654  -43.7656   -9.9648 C   0  0  0  0  0  0  0  0  0  0  0  0
  -19.1479  -43.4174  -10.0064 C   0  0  0  0  0  0  0  0  0  0  0  0
  -18.6668  -43.0508  -11.1151 O   0  0  0  0  0  0  0  0  0  0  0  0
  -18.2217  -43.4410   -8.9265 N   0  0  0  0  0  0  0  0  0  0  0  0
  -16.8142  -43.7638   -9.0708 C   0  0  0  0  0  0  0  0  0  0  0  0
  -18.6144  -43.1368   -7.5542 C   0  0  1  0  0  0  0  0  0  0  0  0
  -18.9472  -44.4343   -6.8040 C   0  0  0  0  0  0  0  0  0  0  0  0
  -17.5544  -42.4789   -6.7647 C   0  0  0  0  0  0  0  0  0  0  0  0
  -16.4938  -43.1183   -6.5595 O   0  0  0  0  0  0  0  0  0  0  0  0
  -17.6319  -41.1790   -6.2143 N   0  0  0  0  0  0  0  0  0  0  0  0
  -18.1167  -39.9972   -6.8892 C   0  0  1  0  0  0  0  0  0  0  0  0
  -18.9153  -39.0704   -6.0127 C   0  0  0  0  0  0  0  0  0  0  0  0
  -16.8419  -39.3195   -7.4376 C   0  0  2  0  0  0  0  0  0  0  0  0
  -17.2224  -38.2922   -8.3050 O   0  0  0  0  0  0  0  0  0  0  0  0
  -16.0121  -40.2943   -8.2001 C   0  0  0  0  0  0  0  0  0  0  0  0
  -14.6823  -39.9484   -8.5056 N   0  0  0  0  0  0  0  0  0  0  0  0
  -14.1705  -40.2149   -9.8006 C   0  0  0  0  0  0  0  0  0  0  0  0
  -15.2207  -40.7890  -10.7393 C   0  0  0  0  0  0  0  0  0  0  0  0
  -12.9574  -41.0645   -9.7896 C   0  0  0  0  0  0  0  0  0  0  0  0
  -13.8173  -38.8600  -10.4010 C   0  0  0  0  0  0  0  0  0  0  0  0
  -13.1659  -38.5915  -11.5762 C   0  0  0  0  0  0  0  0  0  0  0  0
  -13.0713  -37.1969  -11.6942 C   0  0  0  0  0  0  0  0  0  0  0  0
  -12.4293  -36.4940  -12.8346 C   0  0  0  0  0  0  0  0  0  0  0  0
  -13.0238  -35.1280  -13.0922 C   0  0  0  0  0  0  0  0  0  0  0  0
  -12.2119  -34.5460  -14.2572 C   0  0  0  0  0  0  0  0  0  0  0  0
  -12.8618  -34.2019  -11.9280 C   0  0  0  0  0  0  0  0  0  0  0  0
  -14.4547  -35.1585  -13.5172 C   0  0  0  0  0  0  0  0  0  0  0  0
  -13.6410  -36.7149  -10.6392 O   0  0  0  0  0  0  0  0  0  0  0  0
  -14.0931  -37.6526   -9.8524 N   0  0  0  0  0  0  0  0  0  0  0  0
  2  1  1  1
  2  3  1  0
  3  4  1  0
  4  5  1  0
  5  6  1  0
  6  7  1  0
  7  8  1  0
  8  9  1  0
  9 10  1  0
 10 11  1  0
 11 12  2  0
 11 13  1  0
 13 14  1  0
 13 15  1  0
 15 16  1  1
 15 17  1  0
 17 18  2  0
 17 19  1  0
 19 20  1  0
 20 21  1  1
 20 22  1  0
 22 23  1  6
 22 24  1  0
 24 25  1  0
 25 26  1  0
 26 27  1  0
 26 28  1  0
 26 29  1  0
 29 30  1  0
 30 31  2  0
 31 32  1  0
 32 33  1  0
 33 34  1  0
 33 35  1  0
 33 36  1  0
 31 37  1  0
 37 38  1  0
 21  2  1  0
 38 29  2  0
M  END
$$$$
