
     RDKit          3D

 38 39  0  0  0  0  0  0  0  0999 V2000
  -20.0054  -37.0951   -5.9617 C   0  0  0  0  0  0  0  0  0  0  0  0
  -19.4855  -38.1565   -6.9074 C   0  0  2  0  0  0  0  0  0  0  0  0
  -20.5678  -39.0300   -7.3884 C   0  0  0  0  0  0  0  0  0  0  0  0
  -21.3601  -39.7812   -6.3984 C   0  0  0  0  0  0  0  0  0  0  0  0
  -21.6822  -41.1705   -6.9637 C   0  0  0  0  0  0  0  0  0  0  0  0
  -22.8252  -41.1736   -7.9136 C   0  0  0  0  0  0  0  0  0  0  0  0
  -22.4752  -40.9729   -9.3506 C   0  0  0  0  0  0  0  0  0  0  0  0
  -21.4975  -41.9661   -9.9100 C   0  0  0  0  0  0  0  0  0  0  0  0
  -20.5623  -41.2747  -10.9152 C   0  0  0  0  0  0  0  0  0  0  0  0
  -19.6071  -42.2157  -11.5206 C   0  0  0  0  0  0  0  0  0  0  0  0
  -18.1855  -41.9414  -11.3310 C   0  0  0  0  0  0  0  0  0  0  0  0
  -17.5810  -41.3197  -12.2492 O   0  0  0  0  0  0  0  0  0  0  0  0
  -17.3798  -42.2969  -10.2133 N   0  0  0  0  0  0  0  0  0  0  0  0
  -15.9728  -42.6412  -10.3031 C   0  0  0  0  0  0  0  0  0  0  0  0
  -17.9085  -42.3468   -8.8539 C   0  0  1  0  0  0  0  0  0  0  0  0
  -18.3493  -43.7778   -8.5149 C   0  0  0  0  0  0  0  0  0  0  0  0
  -16.9232  -41.9759   -7.8189 C   0  0  0  0  0  0  0  0  0  0  0  0
  -15.9055  -42.6999   -7.6920 O   0  0  0  0  0  0  0  0  0  0  0  0
  -17.0282  -40.8656   -6.9501 N   0  0  0  0  0  0  0  0  0  0  0  0
  -17.4109  -39.5244   -7.3264 C   0  0  1  0  0  0  0  0  0  0  0  0
  -18.2761  -38.8230   -6.3143 C   0  0  0  0  0  0  0  0  0  0  0  0
  -16.0697  -38.7915   -7.5481 C   0  0  2  0  0  0  0  0  0  0  0  0
  -16.3243  -37.5896   -8.2138 O   0  0  0  0  0  0  0  0  0  0  0  0
  -15.1537  -39.6103   -8.3912 C   0  0  0  0  0  0  0  0  0  0  0  0
  -14.8271  -39.1408   -9.6774 N   0  0  0  0  0  0  0  0  0  0  0  0
  -13.5757  -39.4823  -10.2494 C   0  0  0  0  0  0  0  0  0  0  0  0
  -13.5842  -40.8572  -10.8999 C   0  0  0  0  0  0  0  0  0  0  0  0
  -12.4434  -39.3578   -9.3029 C   0  0  0  0  0  0  0  0  0  0  0  0
  -13.3613  -38.5117  -11.4040 C   0  0  0  0  0  0  0  0  0  0  0  0
  -12.5170  -38.6348  -12.4761 C   0  0  0  0  0  0  0  0  0  0  0  0
  -12.6700  -37.4848  -13.2646 C   0  0  0  0  0  0  0  0  0  0  0  0
  -11.9270  -37.2280  -14.5251 C   0  0  0  0  0  0  0  0  0  0  0  0
  -10.7792  -36.2609  -14.3436 C   0  0  0  0  0  0  0  0  0  0  0  0
   -9.8716  -36.9034  -13.2858 C   0  0  0  0  0  0  0  0  0  0  0  0
  -11.2230  -34.9366  -13.8066 C   0  0  0  0  0  0  0  0  0  0  0  0
   -9.9565  -36.0569  -15.5726 C   0  0  0  0  0  0  0  0  0  0  0  0
  -13.5539  -36.7598  -12.6622 O   0  0  0  0  0  0  0  0  0  0  0  0
  -13.9873  -37.3216  -11.5670 N   0  0  0  0  0  0  0  0  0  0  0  0
  2  1  1  1
  2  3  1  0
  3  4  1  0
  4  5  1  0
  5  6  1  0
  6  7  1  0
  7  8  1  0
  8  9  1  0
  9 10  1  0
 10 11  1  0
 11 12  2  0
 11 13  1  0
 13 14  1  0
 13 15  1  0
 15 16  1  1
 15 17  1  0
 17 18  2  0
 17 19  1  0
 19 20  1  0
 20 21  1  1
 20 22  1  0
 22 23  1  6
 22 24  1  0
 24 25  1  0
 25 26  1  0
 26 27  1  0
 26 28  1  0
 26 29  1  0
 29 30  1  0
 30 31  2  0
 31 32  1  0
 32 33  1  0
 33 34  1  0
 33 35  1  0
 33 36  1  0
 31 37  1  0
 37 38  1  0
 21  2  1  0
 38 29  2  0
M  END
$$$$
