
     RDKit          3D

 38 39  0  0  0  0  0  0  0  0999 V2000
  -19.3443  -36.5309   -6.6967 C   0  0  0  0  0  0  0  0  0  0  0  0
  -19.0608  -37.9344   -7.1879 C   0  0  2  0  0  0  0  0  0  0  0  0
  -20.3029  -38.6631   -7.4907 C   0  0  0  0  0  0  0  0  0  0  0  0
  -21.2927  -38.8473   -6.4143 C   0  0  0  0  0  0  0  0  0  0  0  0
  -21.9200  -40.2413   -6.5427 C   0  0  0  0  0  0  0  0  0  0  0  0
  -22.9909  -40.3171   -7.5705 C   0  0  0  0  0  0  0  0  0  0  0  0
  -22.5458  -40.6925   -8.9449 C   0  0  0  0  0  0  0  0  0  0  0  0
  -21.8175  -42.0022   -9.0400 C   0  0  0  0  0  0  0  0  0  0  0  0
  -20.7031  -41.9090  -10.0949 C   0  0  0  0  0  0  0  0  0  0  0  0
  -19.9820  -43.1815  -10.2526 C   0  0  0  0  0  0  0  0  0  0  0  0
  -18.5449  -43.1734   -9.9934 C   0  0  0  0  0  0  0  0  0  0  0  0
  -17.7716  -43.0432  -10.9834 O   0  0  0  0  0  0  0  0  0  0  0  0
  -17.8948  -43.2969   -8.7338 N   0  0  0  0  0  0  0  0  0  0  0  0
  -16.6112  -43.9465   -8.5426 C   0  0  0  0  0  0  0  0  0  0  0  0
  -18.4733  -42.7708   -7.5015 C   0  0  1  0  0  0  0  0  0  0  0  0
  -19.2617  -43.8731   -6.7800 C   0  0  0  0  0  0  0  0  0  0  0  0
  -17.4692  -42.2952   -6.5292 C   0  0  0  0  0  0  0  0  0  0  0  0
  -16.6638  -43.1359   -6.0595 O   0  0  0  0  0  0  0  0  0  0  0  0
  -17.3358  -40.9625   -6.0769 N   0  0  0  0  0  0  0  0  0  0  0  0
  -17.3659  -39.7773   -6.9023 C   0  0  1  0  0  0  0  0  0  0  0  0
  -18.0741  -38.6068   -6.2751 C   0  0  0  0  0  0  0  0  0  0  0  0
  -15.8791  -39.4698   -7.1852 C   0  0  2  0  0  0  0  0  0  0  0  0
  -15.7364  -38.0916   -7.3658 O   0  0  0  0  0  0  0  0  0  0  0  0
  -15.4253  -40.1555   -8.4279 C   0  0  0  0  0  0  0  0  0  0  0  0
  -14.0426  -40.3049   -8.6446 N   0  0  0  0  0  0  0  0  0  0  0  0
  -13.5391  -40.3094   -9.9699 C   0  0  0  0  0  0  0  0  0  0  0  0
  -14.1776  -41.3845  -10.8359 C   0  0  0  0  0  0  0  0  0  0  0  0
  -12.0619  -40.3917  -10.0371 C   0  0  0  0  0  0  0  0  0  0  0  0
  -13.9879  -38.9947  -10.5955 C   0  0  0  0  0  0  0  0  0  0  0  0
  -13.8572  -38.5800  -11.8949 C   0  0  0  0  0  0  0  0  0  0  0  0
  -14.4178  -37.2972  -11.9841 C   0  0  0  0  0  0  0  0  0  0  0  0
  -14.4761  -36.4930  -13.2317 C   0  0  0  0  0  0  0  0  0  0  0  0
  -13.4721  -35.3627  -13.2492 C   0  0  0  0  0  0  0  0  0  0  0  0
  -12.1023  -36.0350  -13.0856 C   0  0  0  0  0  0  0  0  0  0  0  0
  -13.6475  -34.4205  -12.0999 C   0  0  0  0  0  0  0  0  0  0  0  0
  -13.4426  -34.5961  -14.5300 C   0  0  0  0  0  0  0  0  0  0  0  0
  -14.8387  -37.0134  -10.7957 O   0  0  0  0  0  0  0  0  0  0  0  0
  -14.6081  -37.9789   -9.9487 N   0  0  0  0  0  0  0  0  0  0  0  0
  2  1  1  1
  2  3  1  0
  3  4  1  0
  4  5  1  0
  5  6  1  0
  6  7  1  0
  7  8  1  0
  8  9  1  0
  9 10  1  0
 10 11  1  0
 11 12  2  0
 11 13  1  0
 13 14  1  0
 13 15  1  0
 15 16  1  1
 15 17  1  0
 17 18  2  0
 17 19  1  0
 19 20  1  0
 20 21  1  1
 20 22  1  0
 22 23  1  6
 22 24  1  0
 24 25  1  0
 25 26  1  0
 26 27  1  0
 26 28  1  0
 26 29  1  0
 29 30  1  0
 30 31  2  0
 31 32  1  0
 32 33  1  0
 33 34  1  0
 33 35  1  0
 33 36  1  0
 31 37  1  0
 37 38  1  0
 21  2  1  0
 38 29  2  0
M  END
$$$$
