
     RDKit          3D

 38 39  0  0  0  0  0  0  0  0999 V2000
  -20.6019  -36.9920   -7.2191 C   0  0  0  0  0  0  0  0  0  0  0  0
  -20.1313  -38.3910   -7.5547 C   0  0  2  0  0  0  0  0  0  0  0  0
  -21.1190  -39.4053   -7.1532 C   0  0  0  0  0  0  0  0  0  0  0  0
  -21.5121  -39.4841   -5.7350 C   0  0  0  0  0  0  0  0  0  0  0  0
  -21.6993  -40.9565   -5.3473 C   0  0  0  0  0  0  0  0  0  0  0  0
  -23.0107  -41.5174   -5.7649 C   0  0  0  0  0  0  0  0  0  0  0  0
  -23.0441  -42.1541   -7.1145 C   0  0  0  0  0  0  0  0  0  0  0  0
  -22.0589  -43.2698   -7.3138 C   0  0  0  0  0  0  0  0  0  0  0  0
  -21.5219  -43.2462   -8.7540 C   0  0  0  0  0  0  0  0  0  0  0  0
  -20.5782  -44.3451   -9.0112 C   0  0  0  0  0  0  0  0  0  0  0  0
  -19.2249  -43.9830   -9.4232 C   0  0  0  0  0  0  0  0  0  0  0  0
  -18.9714  -43.9746  -10.6604 O   0  0  0  0  0  0  0  0  0  0  0  0
  -18.1324  -43.6306   -8.5824 N   0  0  0  0  0  0  0  0  0  0  0  0
  -16.7457  -43.9372   -8.8814 C   0  0  0  0  0  0  0  0  0  0  0  0
  -18.3151  -42.9167   -7.3227 C   0  0  1  0  0  0  0  0  0  0  0  0
  -18.3994  -43.9166   -6.1607 C   0  0  0  0  0  0  0  0  0  0  0  0
  -17.2013  -42.0073   -6.9879 C   0  0  0  0  0  0  0  0  0  0  0  0
  -16.0681  -42.5132   -6.7983 O   0  0  0  0  0  0  0  0  0  0  0  0
  -17.3019  -40.6029   -6.8608 N   0  0  0  0  0  0  0  0  0  0  0  0
  -17.9972  -39.7149   -7.7636 C   0  0  1  0  0  0  0  0  0  0  0  0
  -18.7176  -38.5829   -7.0820 C   0  0  0  0  0  0  0  0  0  0  0  0
  -16.8987  -39.2073   -8.7230 C   0  0  2  0  0  0  0  0  0  0  0  0
  -17.3005  -39.4663  -10.0360 O   0  0  0  0  0  0  0  0  0  0  0  0
  -15.6127  -39.9186   -8.4768 C   0  0  0  0  0  0  0  0  0  0  0  0
  -14.4094  -39.2477   -8.7651 N   0  0  0  0  0  0  0  0  0  0  0  0
  -13.5623  -39.7406   -9.7896 C   0  0  0  0  0  0  0  0  0  0  0  0
  -12.4060  -40.5667   -9.2473 C   0  0  0  0  0  0  0  0  0  0  0  0
  -13.0684  -38.6842  -10.7026 C   0  0  0  0  0  0  0  0  0  0  0  0
  -14.4003  -40.7302  -10.5894 C   0  0  0  0  0  0  0  0  0  0  0  0
  -14.1138  -42.0331  -10.9022 C   0  0  0  0  0  0  0  0  0  0  0  0
  -15.1870  -42.5289  -11.6573 C   0  0  0  0  0  0  0  0  0  0  0  0
  -15.2651  -43.9113  -12.1953 C   0  0  0  0  0  0  0  0  0  0  0  0
  -16.2397  -44.7827  -11.4360 C   0  0  0  0  0  0  0  0  0  0  0  0
  -17.5987  -44.0824  -11.5699 C   0  0  0  0  0  0  0  0  0  0  0  0
  -15.9210  -44.8642   -9.9762 C   0  0  0  0  0  0  0  0  0  0  0  0
  -16.3895  -46.1581  -11.9972 C   0  0  0  0  0  0  0  0  0  0  0  0
  -16.0270  -41.5522  -11.7588 O   0  0  0  0  0  0  0  0  0  0  0  0
  -15.6080  -40.4776  -11.1484 N   0  0  0  0  0  0  0  0  0  0  0  0
  2  1  1  1
  2  3  1  0
  3  4  1  0
  4  5  1  0
  5  6  1  0
  6  7  1  0
  7  8  1  0
  8  9  1  0
  9 10  1  0
 10 11  1  0
 11 12  2  0
 11 13  1  0
 13 14  1  0
 13 15  1  0
 15 16  1  1
 15 17  1  0
 17 18  2  0
 17 19  1  0
 19 20  1  0
 20 21  1  1
 20 22  1  0
 22 23  1  6
 22 24  1  0
 24 25  1  0
 25 26  1  0
 26 27  1  0
 26 28  1  0
 26 29  1  0
 29 30  1  0
 30 31  2  0
 31 32  1  0
 32 33  1  0
 33 34  1  0
 33 35  1  0
 33 36  1  0
 31 37  1  0
 37 38  1  0
 21  2  1  0
 38 29  2  0
M  END
$$$$
