
     RDKit          3D

 38 39  0  0  0  0  0  0  0  0999 V2000
  -21.2327  -37.7585   -8.3429 C   0  0  0  0  0  0  0  0  0  0  0  0
  -20.9482  -39.2282   -8.1189 C   0  0  2  0  0  0  0  0  0  0  0  0
  -22.0067  -39.8693   -7.3224 C   0  0  0  0  0  0  0  0  0  0  0  0
  -22.2910  -39.3442   -5.9750 C   0  0  0  0  0  0  0  0  0  0  0  0
  -22.6083  -40.5157   -5.0367 C   0  0  0  0  0  0  0  0  0  0  0  0
  -24.0029  -41.0138   -5.1610 C   0  0  0  0  0  0  0  0  0  0  0  0
  -24.2147  -42.1094   -6.1522 C   0  0  0  0  0  0  0  0  0  0  0  0
  -23.3783  -43.3366   -5.9295 C   0  0  0  0  0  0  0  0  0  0  0  0
  -22.9592  -43.9396   -7.2801 C   0  0  0  0  0  0  0  0  0  0  0  0
  -22.1666  -45.1681   -7.1158 C   0  0  0  0  0  0  0  0  0  0  0  0
  -20.8190  -45.1758   -7.6781 C   0  0  0  0  0  0  0  0  0  0  0  0
  -20.6662  -45.6770   -8.8272 O   0  0  0  0  0  0  0  0  0  0  0  0
  -19.6303  -44.6764   -7.0763 N   0  0  0  0  0  0  0  0  0  0  0  0
  -18.3146  -45.2559   -7.2741 C   0  0  0  0  0  0  0  0  0  0  0  0
  -19.6312  -43.5159   -6.1912 C   0  0  1  0  0  0  0  0  0  0  0  0
  -19.7322  -43.9719   -4.7287 C   0  0  0  0  0  0  0  0  0  0  0  0
  -18.4003  -42.7048   -6.2733 C   0  0  0  0  0  0  0  0  0  0  0  0
  -17.3186  -43.2451   -5.9359 O   0  0  0  0  0  0  0  0  0  0  0  0
  -18.3344  -41.3594   -6.7025 N   0  0  0  0  0  0  0  0  0  0  0  0
  -18.9974  -40.8022   -7.8589 C   0  0  1  0  0  0  0  0  0  0  0  0
  -19.5311  -39.4103   -7.6526 C   0  0  0  0  0  0  0  0  0  0  0  0
  -17.9300  -40.8533   -8.9738 C   0  0  2  0  0  0  0  0  0  0  0  0
  -16.8417  -41.5994   -8.5139 O   0  0  0  0  0  0  0  0  0  0  0  0
  -17.4512  -39.4828   -9.3095 C   0  0  0  0  0  0  0  0  0  0  0  0
  -16.0723  -39.2848   -9.5110 N   0  0  0  0  0  0  0  0  0  0  0  0
  -15.5561  -37.9655   -9.5664 C   0  0  0  0  0  0  0  0  0  0  0  0
  -14.9512  -37.5168   -8.2449 C   0  0  0  0  0  0  0  0  0  0  0  0
  -16.5372  -36.9709  -10.0579 C   0  0  0  0  0  0  0  0  0  0  0  0
  -14.3785  -38.0141  -10.5318 C   0  0  0  0  0  0  0  0  0  0  0  0
  -13.4468  -37.0432  -10.7901 C   0  0  0  0  0  0  0  0  0  0  0  0
  -12.5666  -37.5529  -11.7562 C   0  0  0  0  0  0  0  0  0  0  0  0
  -11.4083  -36.8069  -12.3114 C   0  0  0  0  0  0  0  0  0  0  0  0
  -11.6326  -36.3486  -13.7346 C   0  0  0  0  0  0  0  0  0  0  0  0
  -10.5341  -35.3113  -14.0041 C   0  0  0  0  0  0  0  0  0  0  0  0
  -12.9497  -35.6621  -13.9165 C   0  0  0  0  0  0  0  0  0  0  0  0
  -11.4830  -37.4310  -14.7521 C   0  0  0  0  0  0  0  0  0  0  0  0
  -12.9872  -38.7458  -12.0212 O   0  0  0  0  0  0  0  0  0  0  0  0
  -14.0469  -39.0591  -11.3273 N   0  0  0  0  0  0  0  0  0  0  0  0
  2  1  1  1
  2  3  1  0
  3  4  1  0
  4  5  1  0
  5  6  1  0
  6  7  1  0
  7  8  1  0
  8  9  1  0
  9 10  1  0
 10 11  1  0
 11 12  2  0
 11 13  1  0
 13 14  1  0
 13 15  1  0
 15 16  1  1
 15 17  1  0
 17 18  2  0
 17 19  1  0
 19 20  1  0
 20 21  1  1
 20 22  1  0
 22 23  1  1
 22 24  1  0
 24 25  1  0
 25 26  1  0
 26 27  1  0
 26 28  1  0
 26 29  1  0
 29 30  1  0
 30 31  2  0
 31 32  1  0
 32 33  1  0
 33 34  1  0
 33 35  1  0
 33 36  1  0
 31 37  1  0
 37 38  1  0
 21  2  1  0
 38 29  2  0
M  END
$$$$
