
     RDKit          3D

 38 39  0  0  0  0  0  0  0  0999 V2000
  -21.0810  -37.3447   -5.7665 C   0  0  0  0  0  0  0  0  0  0  0  0
  -20.5630  -38.4508   -6.6606 C   0  0  2  0  0  0  0  0  0  0  0  0
  -21.4980  -39.5859   -6.7146 C   0  0  0  0  0  0  0  0  0  0  0  0
  -21.8506  -40.2693   -5.4572 C   0  0  0  0  0  0  0  0  0  0  0  0
  -21.9678  -41.7760   -5.7210 C   0  0  0  0  0  0  0  0  0  0  0  0
  -23.2658  -42.1726   -6.3264 C   0  0  0  0  0  0  0  0  0  0  0  0
  -23.3086  -42.1873   -7.8183 C   0  0  0  0  0  0  0  0  0  0  0  0
  -22.2846  -43.0689   -8.4734 C   0  0  0  0  0  0  0  0  0  0  0  0
  -21.7866  -42.4195   -9.7748 C   0  0  0  0  0  0  0  0  0  0  0  0
  -20.8063  -43.2637  -10.4751 C   0  0  0  0  0  0  0  0  0  0  0  0
  -19.4799  -42.6984  -10.7065 C   0  0  0  0  0  0  0  0  0  0  0  0
  -19.2593  -42.1612  -11.8280 O   0  0  0  0  0  0  0  0  0  0  0  0
  -18.3811  -42.6783   -9.8028 N   0  0  0  0  0  0  0  0  0  0  0  0
  -16.9914  -42.7652  -10.2120 C   0  0  0  0  0  0  0  0  0  0  0  0
  -18.5596  -42.5664   -8.3586 C   0  0  1  0  0  0  0  0  0  0  0  0
  -18.5731  -43.9634   -7.7220 C   0  0  0  0  0  0  0  0  0  0  0  0
  -17.4752  -41.8284   -7.6811 C   0  0  0  0  0  0  0  0  0  0  0  0
  -16.3179  -42.3126   -7.7285 O   0  0  0  0  0  0  0  0  0  0  0  0
  -17.6292  -40.6125   -6.9764 N   0  0  0  0  0  0  0  0  0  0  0  0
  -18.3832  -39.4626   -7.4194 C   0  0  1  0  0  0  0  0  0  0  0  0
  -19.1308  -38.7552   -6.3214 C   0  0  0  0  0  0  0  0  0  0  0  0
  -17.3315  -38.5485   -8.0852 C   0  0  2  0  0  0  0  0  0  0  0  0
  -17.9533  -37.8256   -9.1066 O   0  0  0  0  0  0  0  0  0  0  0  0
  -16.2327  -39.3571   -8.6842 C   0  0  0  0  0  0  0  0  0  0  0  0
  -15.0032  -38.7253   -8.9499 N   0  0  0  0  0  0  0  0  0  0  0  0
  -14.7575  -38.1875  -10.2384 C   0  0  0  0  0  0  0  0  0  0  0  0
  -15.0344  -36.6936  -10.3126 C   0  0  0  0  0  0  0  0  0  0  0  0
  -15.4687  -38.9062  -11.3205 C   0  0  0  0  0  0  0  0  0  0  0  0
  -13.2566  -38.3124  -10.4679 C   0  0  0  0  0  0  0  0  0  0  0  0
  -12.4222  -37.4572  -11.1386 C   0  0  0  0  0  0  0  0  0  0  0  0
  -11.1310  -38.0029  -11.0850 C   0  0  0  0  0  0  0  0  0  0  0  0
   -9.9308  -37.3774  -11.6973 C   0  0  0  0  0  0  0  0  0  0  0  0
   -9.3810  -38.1745  -12.8584 C   0  0  0  0  0  0  0  0  0  0  0  0
  -10.5342  -38.2700  -13.8664 C   0  0  0  0  0  0  0  0  0  0  0  0
   -9.0089  -39.5714  -12.4716 C   0  0  0  0  0  0  0  0  0  0  0  0
   -8.2332  -37.5211  -13.5545 C   0  0  0  0  0  0  0  0  0  0  0  0
  -11.2418  -39.1046  -10.4186 O   0  0  0  0  0  0  0  0  0  0  0  0
  -12.4695  -39.3271  -10.0368 N   0  0  0  0  0  0  0  0  0  0  0  0
  2  1  1  1
  2  3  1  0
  3  4  1  0
  4  5  1  0
  5  6  1  0
  6  7  1  0
  7  8  1  0
  8  9  1  0
  9 10  1  0
 10 11  1  0
 11 12  2  0
 11 13  1  0
 13 14  1  0
 13 15  1  0
 15 16  1  1
 15 17  1  0
 17 18  2  0
 17 19  1  0
 19 20  1  0
 20 21  1  1
 20 22  1  0
 22 23  1  6
 22 24  1  0
 24 25  1  0
 25 26  1  0
 26 27  1  0
 26 28  1  0
 26 29  1  0
 29 30  1  0
 30 31  2  0
 31 32  1  0
 32 33  1  0
 33 34  1  0
 33 35  1  0
 33 36  1  0
 31 37  1  0
 37 38  1  0
 21  2  1  0
 38 29  2  0
M  END
$$$$
