
     RDKit          3D

 38 39  0  0  0  0  0  0  0  0999 V2000
  -20.0850  -36.7299   -6.3928 C   0  0  0  0  0  0  0  0  0  0  0  0
  -19.8298  -38.1664   -6.7961 C   0  0  2  0  0  0  0  0  0  0  0  0
  -21.0543  -38.9782   -6.7109 C   0  0  0  0  0  0  0  0  0  0  0  0
  -21.7426  -39.0817   -5.4117 C   0  0  0  0  0  0  0  0  0  0  0  0
  -22.2835  -40.5073   -5.2428 C   0  0  0  0  0  0  0  0  0  0  0  0
  -23.5610  -40.7460   -5.9637 C   0  0  0  0  0  0  0  0  0  0  0  0
  -23.4324  -41.2554   -7.3608 C   0  0  0  0  0  0  0  0  0  0  0  0
  -22.6582  -42.5345   -7.5006 C   0  0  0  0  0  0  0  0  0  0  0  0
  -21.8377  -42.5133   -8.8005 C   0  0  0  0  0  0  0  0  0  0  0  0
  -21.0881  -43.7630   -9.0025 C   0  0  0  0  0  0  0  0  0  0  0  0
  -19.6350  -43.6628   -9.1059 C   0  0  0  0  0  0  0  0  0  0  0  0
  -19.1318  -43.6125  -10.2632 O   0  0  0  0  0  0  0  0  0  0  0  0
  -18.6955  -43.6139   -8.0383 N   0  0  0  0  0  0  0  0  0  0  0  0
  -17.3613  -44.1812   -8.1041 C   0  0  0  0  0  0  0  0  0  0  0  0
  -18.9979  -42.9769   -6.7605 C   0  0  1  0  0  0  0  0  0  0  0  0
  -19.5119  -44.0233   -5.7615 C   0  0  0  0  0  0  0  0  0  0  0  0
  -17.8262  -42.3506   -6.1166 C   0  0  0  0  0  0  0  0  0  0  0  0
  -16.8752  -43.0966   -5.7774 O   0  0  0  0  0  0  0  0  0  0  0  0
  -17.6819  -40.9706   -5.8460 N   0  0  0  0  0  0  0  0  0  0  0  0
  -17.9913  -39.8893   -6.7528 C   0  0  1  0  0  0  0  0  0  0  0  0
  -18.6090  -38.6871   -6.0909 C   0  0  0  0  0  0  0  0  0  0  0  0
  -16.6404  -39.5516   -7.4208 C   0  0  2  0  0  0  0  0  0  0  0  0
  -16.8305  -38.4725   -8.2880 O   0  0  0  0  0  0  0  0  0  0  0  0
  -16.1400  -40.7091   -8.2145 C   0  0  0  0  0  0  0  0  0  0  0  0
  -14.8267  -40.6589   -8.7186 N   0  0  0  0  0  0  0  0  0  0  0  0
  -14.6050  -40.8206  -10.1095 C   0  0  0  0  0  0  0  0  0  0  0  0
  -15.8851  -41.1140  -10.8768 C   0  0  0  0  0  0  0  0  0  0  0  0
  -13.5631  -41.8246  -10.4256 C   0  0  0  0  0  0  0  0  0  0  0  0
  -14.1508  -39.4607  -10.6246 C   0  0  0  0  0  0  0  0  0  0  0  0
  -13.7012  -39.1293  -11.8758 C   0  0  0  0  0  0  0  0  0  0  0  0
  -13.3980  -37.7597  -11.8634 C   0  0  0  0  0  0  0  0  0  0  0  0
  -12.8777  -37.0060  -13.0329 C   0  0  0  0  0  0  0  0  0  0  0  0
  -13.4464  -35.6086  -13.1312 C   0  0  0  0  0  0  0  0  0  0  0  0
  -12.6040  -34.7598  -12.1694 C   0  0  0  0  0  0  0  0  0  0  0  0
  -14.8670  -35.5324  -12.6670 C   0  0  0  0  0  0  0  0  0  0  0  0
  -13.3255  -34.9975  -14.4880 C   0  0  0  0  0  0  0  0  0  0  0  0
  -13.6654  -37.3507  -10.6671 O   0  0  0  0  0  0  0  0  0  0  0  0
  -14.1093  -38.3132   -9.9060 N   0  0  0  0  0  0  0  0  0  0  0  0
  2  1  1  1
  2  3  1  0
  3  4  1  0
  4  5  1  0
  5  6  1  0
  6  7  1  0
  7  8  1  0
  8  9  1  0
  9 10  1  0
 10 11  1  0
 11 12  2  0
 11 13  1  0
 13 14  1  0
 13 15  1  0
 15 16  1  1
 15 17  1  0
 17 18  2  0
 17 19  1  0
 19 20  1  0
 20 21  1  1
 20 22  1  0
 22 23  1  6
 22 24  1  0
 24 25  1  0
 25 26  1  0
 26 27  1  0
 26 28  1  0
 26 29  1  0
 29 30  1  0
 30 31  2  0
 31 32  1  0
 32 33  1  0
 33 34  1  0
 33 35  1  0
 33 36  1  0
 31 37  1  0
 37 38  1  0
 21  2  1  0
 38 29  2  0
M  END
$$$$
