
     RDKit          3D

 38 39  0  0  0  0  0  0  0  0999 V2000
  -20.2753  -37.9485   -4.8374 C   0  0  0  0  0  0  0  0  0  0  0  0
  -19.8380  -38.6705   -6.0939 C   0  0  2  0  0  0  0  0  0  0  0  0
  -20.9262  -39.4862   -6.6561 C   0  0  0  0  0  0  0  0  0  0  0  0
  -21.5209  -40.5425   -5.8178 C   0  0  0  0  0  0  0  0  0  0  0  0
  -21.8407  -41.7592   -6.6958 C   0  0  0  0  0  0  0  0  0  0  0  0
  -23.1077  -41.6219   -7.4604 C   0  0  0  0  0  0  0  0  0  0  0  0
  -22.9829  -41.0192   -8.8202 C   0  0  0  0  0  0  0  0  0  0  0  0
  -22.0412  -41.7334   -9.7464 C   0  0  0  0  0  0  0  0  0  0  0  0
  -21.3041  -40.7170  -10.6335 C   0  0  0  0  0  0  0  0  0  0  0  0
  -20.3942  -41.3712  -11.5866 C   0  0  0  0  0  0  0  0  0  0  0  0
  -18.9784  -41.0223  -11.5082 C   0  0  0  0  0  0  0  0  0  0  0  0
  -18.5513  -40.1271  -12.2899 O   0  0  0  0  0  0  0  0  0  0  0  0
  -17.9994  -41.5800  -10.6393 N   0  0  0  0  0  0  0  0  0  0  0  0
  -16.6029  -41.7533  -10.9942 C   0  0  0  0  0  0  0  0  0  0  0  0
  -18.3207  -42.0345   -9.2901 C   0  0  1  0  0  0  0  0  0  0  0  0
  -18.6236  -43.5396   -9.3020 C   0  0  0  0  0  0  0  0  0  0  0  0
  -17.2184  -41.8559   -8.3244 C   0  0  0  0  0  0  0  0  0  0  0  0
  -16.1527  -42.4877   -8.5276 O   0  0  0  0  0  0  0  0  0  0  0  0
  -17.2600  -41.0274   -7.1797 N   0  0  0  0  0  0  0  0  0  0  0  0
  -17.7707  -39.6771   -7.1253 C   0  0  1  0  0  0  0  0  0  0  0  0
  -18.5185  -39.3511   -5.8606 C   0  0  0  0  0  0  0  0  0  0  0  0
  -16.5209  -38.7876   -7.3040 C   0  0  2  0  0  0  0  0  0  0  0  0
  -16.7953  -37.8256   -8.2795 O   0  0  0  0  0  0  0  0  0  0  0  0
  -15.3565  -39.5985   -7.7589 C   0  0  0  0  0  0  0  0  0  0  0  0
  -14.2093  -38.9252   -8.2193 N   0  0  0  0  0  0  0  0  0  0  0  0
  -13.3525  -39.5615   -9.1524 C   0  0  0  0  0  0  0  0  0  0  0  0
  -13.7274  -41.0155   -9.3958 C   0  0  0  0  0  0  0  0  0  0  0  0
  -11.9169  -39.4414   -8.8090 C   0  0  0  0  0  0  0  0  0  0  0  0
  -13.5985  -38.8720  -10.4885 C   0  0  0  0  0  0  0  0  0  0  0  0
  -12.8146  -38.8853  -11.6123 C   0  0  0  0  0  0  0  0  0  0  0  0
  -13.4572  -38.1006  -12.5813 C   0  0  0  0  0  0  0  0  0  0  0  0
  -12.9295  -37.8588  -13.9487 C   0  0  0  0  0  0  0  0  0  0  0  0
  -11.9596  -36.7005  -14.0074 C   0  0  0  0  0  0  0  0  0  0  0  0
  -12.1626  -36.0720  -15.3927 C   0  0  0  0  0  0  0  0  0  0  0  0
  -10.5322  -37.1413  -13.9216 C   0  0  0  0  0  0  0  0  0  0  0  0
  -12.2211  -35.6371  -12.9926 C   0  0  0  0  0  0  0  0  0  0  0  0
  -14.5426  -37.6733  -12.0251 O   0  0  0  0  0  0  0  0  0  0  0  0
  -14.6675  -38.1000  -10.7983 N   0  0  0  0  0  0  0  0  0  0  0  0
  2  1  1  1
  2  3  1  0
  3  4  1  0
  4  5  1  0
  5  6  1  0
  6  7  1  0
  7  8  1  0
  8  9  1  0
  9 10  1  0
 10 11  1  0
 11 12  2  0
 11 13  1  0
 13 14  1  0
 13 15  1  0
 15 16  1  6
 15 17  1  0
 17 18  2  0
 17 19  1  0
 19 20  1  0
 20 21  1  1
 20 22  1  0
 22 23  1  6
 22 24  1  0
 24 25  1  0
 25 26  1  0
 26 27  1  0
 26 28  1  0
 26 29  1  0
 29 30  1  0
 30 31  2  0
 31 32  1  0
 32 33  1  0
 33 34  1  0
 33 35  1  0
 33 36  1  0
 31 37  1  0
 37 38  1  0
 21  2  1  0
 38 29  2  0
M  END
$$$$
