
     RDKit          3D

 38 39  0  0  0  0  0  0  0  0999 V2000
  -13.2747  -34.8962   -9.5444 C   0  0  0  0  0  0  0  0  0  0  0  0
  -13.5199  -36.3670   -9.8052 C   0  0  2  0  0  0  0  0  0  0  0  0
  -13.1246  -36.7479  -11.1706 C   0  0  0  0  0  0  0  0  0  0  0  0
  -13.7676  -36.0646  -12.3072 C   0  0  0  0  0  0  0  0  0  0  0  0
  -14.0004  -37.0780  -13.4352 C   0  0  0  0  0  0  0  0  0  0  0  0
  -12.7881  -37.3444  -14.2525 C   0  0  0  0  0  0  0  0  0  0  0  0
  -11.9281  -38.4728  -13.7890 C   0  0  0  0  0  0  0  0  0  0  0  0
  -12.6258  -39.7980  -13.6789 C   0  0  0  0  0  0  0  0  0  0  0  0
  -12.0808  -40.5808  -12.4732 C   0  0  0  0  0  0  0  0  0  0  0  0
  -12.7081  -41.9052  -12.3434 C   0  0  0  0  0  0  0  0  0  0  0  0
  -13.4231  -42.1887  -11.1023 C   0  0  0  0  0  0  0  0  0  0  0  0
  -12.8000  -42.8089  -10.1955 O   0  0  0  0  0  0  0  0  0  0  0  0
  -14.7660  -41.8441  -10.7822 N   0  0  0  0  0  0  0  0  0  0  0  0
  -15.6341  -42.6513   -9.9450 C   0  0  0  0  0  0  0  0  0  0  0  0
  -15.3988  -40.6257  -11.2775 C   0  0  1  0  0  0  0  0  0  0  0  0
  -16.1792  -40.9262  -12.5650 C   0  0  0  0  0  0  0  0  0  0  0  0
  -16.3805  -40.0431  -10.3414 C   0  0  0  0  0  0  0  0  0  0  0  0
  -17.3955  -40.7249  -10.0568 O   0  0  0  0  0  0  0  0  0  0  0  0
  -16.2754  -38.7715   -9.7326 N   0  0  0  0  0  0  0  0  0  0  0  0
  -15.0896  -38.2163   -9.1220 C   0  0  1  0  0  0  0  0  0  0  0  0
  -14.9058  -36.7418   -9.3607 C   0  0  0  0  0  0  0  0  0  0  0  0
  -15.2424  -38.5448   -7.6208 C   0  0  2  0  0  0  0  0  0  0  0  0
  -14.1019  -39.2323   -7.1976 O   0  0  0  0  0  0  0  0  0  0  0  0
  -16.4287  -39.4160   -7.3890 C   0  0  0  0  0  0  0  0  0  0  0  0
  -16.4803  -40.6649   -8.0362 N   0  0  0  0  0  0  0  0  0  0  0  0
  -17.6929  -41.3993   -8.0429 C   0  0  0  0  0  0  0  0  0  0  0  0
  -17.7423  -42.4592   -6.9529 C   0  0  0  0  0  0  0  0  0  0  0  0
  -18.0150  -41.9897   -9.3624 C   0  0  0  0  0  0  0  0  0  0  0  0
  -18.7874  -40.4088   -7.6662 C   0  0  0  0  0  0  0  0  0  0  0  0
  -20.1389  -40.5141   -7.8665 C   0  0  0  0  0  0  0  0  0  0  0  0
  -20.7308  -39.3501   -7.3542 C   0  0  0  0  0  0  0  0  0  0  0  0
  -22.1898  -39.0722   -7.3768 C   0  0  0  0  0  0  0  0  0  0  0  0
  -22.5792  -38.0636   -8.4337 C   0  0  0  0  0  0  0  0  0  0  0  0
  -23.9677  -38.5012   -8.9192 C   0  0  0  0  0  0  0  0  0  0  0  0
  -21.6636  -38.0889   -9.6171 C   0  0  0  0  0  0  0  0  0  0  0  0
  -22.7051  -36.6664   -7.9230 C   0  0  0  0  0  0  0  0  0  0  0  0
  -19.7586  -38.6346   -6.8927 O   0  0  0  0  0  0  0  0  0  0  0  0
  -18.6011  -39.2151   -7.0538 N   0  0  0  0  0  0  0  0  0  0  0  0
  2  1  1  6
  2  3  1  0
  3  4  1  0
  4  5  1  0
  5  6  1  0
  6  7  1  0
  7  8  1  0
  8  9  1  0
  9 10  1  0
 10 11  1  0
 11 12  2  0
 11 13  1  0
 13 14  1  0
 13 15  1  0
 15 16  1  6
 15 17  1  0
 17 18  2  0
 17 19  1  0
 19 20  1  0
 20 21  1  1
 20 22  1  0
 22 23  1  6
 22 24  1  0
 24 25  1  0
 25 26  1  0
 26 27  1  0
 26 28  1  0
 26 29  1  0
 29 30  1  0
 30 31  2  0
 31 32  1  0
 32 33  1  0
 33 34  1  0
 33 35  1  0
 33 36  1  0
 31 37  1  0
 37 38  1  0
 21  2  1  0
 38 29  2  0
M  END
$$$$
