
     RDKit          3D

 38 39  0  0  0  0  0  0  0  0999 V2000
  -21.0957  -37.6471   -6.9738 C   0  0  0  0  0  0  0  0  0  0  0  0
  -20.6399  -39.0491   -7.3172 C   0  0  2  0  0  0  0  0  0  0  0  0
  -21.5945  -40.0613   -6.8378 C   0  0  0  0  0  0  0  0  0  0  0  0
  -21.8959  -40.1193   -5.3962 C   0  0  0  0  0  0  0  0  0  0  0  0
  -22.0500  -41.5863   -4.9747 C   0  0  0  0  0  0  0  0  0  0  0  0
  -23.3823  -42.1594   -5.2988 C   0  0  0  0  0  0  0  0  0  0  0  0
  -23.4984  -42.8175   -6.6335 C   0  0  0  0  0  0  0  0  0  0  0  0
  -22.5220  -43.9319   -6.8781 C   0  0  0  0  0  0  0  0  0  0  0  0
  -22.0781  -43.9287   -8.3499 C   0  0  0  0  0  0  0  0  0  0  0  0
  -21.1468  -45.0274   -8.6498 C   0  0  0  0  0  0  0  0  0  0  0  0
  -19.8246  -44.6659   -9.1529 C   0  0  0  0  0  0  0  0  0  0  0  0
  -19.6506  -44.6760  -10.4038 O   0  0  0  0  0  0  0  0  0  0  0  0
  -18.6825  -44.2955   -8.3893 N   0  0  0  0  0  0  0  0  0  0  0  0
  -17.3161  -44.6006   -8.7715 C   0  0  0  0  0  0  0  0  0  0  0  0
  -18.7882  -43.5626   -7.1316 C   0  0  1  0  0  0  0  0  0  0  0  0
  -18.7929  -44.5443   -5.9513 C   0  0  0  0  0  0  0  0  0  0  0  0
  -17.6603  -42.6431   -6.8829 C   0  0  0  0  0  0  0  0  0  0  0  0
  -16.5146  -43.1410   -6.7583 O   0  0  0  0  0  0  0  0  0  0  0  0
  -17.7602  -41.2374   -6.7713 N   0  0  0  0  0  0  0  0  0  0  0  0
  -18.5165  -40.3668   -7.6415 C   0  0  1  0  0  0  0  0  0  0  0  0
  -19.1979  -39.2273   -6.9329 C   0  0  0  0  0  0  0  0  0  0  0  0
  -17.4841  -39.8696   -8.6769 C   0  0  2  0  0  0  0  0  0  0  0  0
  -18.1452  -39.6302   -9.8845 O   0  0  0  0  0  0  0  0  0  0  0  0
  -16.4344  -40.9005   -8.9128 C   0  0  0  0  0  0  0  0  0  0  0  0
  -15.6259  -40.7842  -10.0591 N   0  0  0  0  0  0  0  0  0  0  0  0
  -14.3130  -40.2629   -9.9387 C   0  0  0  0  0  0  0  0  0  0  0  0
  -13.3661  -40.8095  -10.9962 C   0  0  0  0  0  0  0  0  0  0  0  0
  -13.7371  -40.4281   -8.5843 C   0  0  0  0  0  0  0  0  0  0  0  0
  -14.4202  -38.7754  -10.2502 C   0  0  0  0  0  0  0  0  0  0  0  0
  -13.4308  -37.9130  -10.6437 C   0  0  0  0  0  0  0  0  0  0  0  0
  -14.0159  -36.6480  -10.8028 C   0  0  0  0  0  0  0  0  0  0  0  0
  -13.2770  -35.4297  -11.2229 C   0  0  0  0  0  0  0  0  0  0  0  0
  -13.4883  -35.0882  -12.6804 C   0  0  0  0  0  0  0  0  0  0  0  0
  -13.1950  -36.3849  -13.4470 C   0  0  0  0  0  0  0  0  0  0  0  0
  -12.5283  -34.0512  -13.1727 C   0  0  0  0  0  0  0  0  0  0  0  0
  -14.8856  -34.6802  -13.0124 C   0  0  0  0  0  0  0  0  0  0  0  0
  -15.2661  -36.7994  -10.5130 O   0  0  0  0  0  0  0  0  0  0  0  0
  -15.5491  -38.0298  -10.1832 N   0  0  0  0  0  0  0  0  0  0  0  0
  2  1  1  1
  2  3  1  0
  3  4  1  0
  4  5  1  0
  5  6  1  0
  6  7  1  0
  7  8  1  0
  8  9  1  0
  9 10  1  0
 10 11  1  0
 11 12  2  0
 11 13  1  0
 13 14  1  0
 13 15  1  0
 15 16  1  1
 15 17  1  0
 17 18  2  0
 17 19  1  0
 19 20  1  0
 20 21  1  1
 20 22  1  0
 22 23  1  6
 22 24  1  0
 24 25  1  0
 25 26  1  0
 26 27  1  0
 26 28  1  0
 26 29  1  0
 29 30  1  0
 30 31  2  0
 31 32  1  0
 32 33  1  0
 33 34  1  0
 33 35  1  0
 33 36  1  0
 31 37  1  0
 37 38  1  0
 21  2  1  0
 38 29  2  0
M  END
$$$$
