
     RDKit          3D

 38 39  0  0  0  0  0  0  0  0999 V2000
  -13.5219  -41.2331  -10.8377 C   0  0  0  0  0  0  0  0  0  0  0  0
  -14.7117  -41.8565  -10.1397 C   0  0  2  0  0  0  0  0  0  0  0  0
  -14.9979  -43.2040  -10.6572 C   0  0  0  0  0  0  0  0  0  0  0  0
  -15.2954  -43.3596  -12.0923 C   0  0  0  0  0  0  0  0  0  0  0  0
  -16.3886  -44.4218  -12.2657 C   0  0  0  0  0  0  0  0  0  0  0  0
  -15.8771  -45.8155  -12.1980 C   0  0  0  0  0  0  0  0  0  0  0  0
  -15.8708  -46.4393  -10.8421 C   0  0  0  0  0  0  0  0  0  0  0  0
  -17.2059  -46.4777  -10.1555 C   0  0  0  0  0  0  0  0  0  0  0  0
  -17.0271  -46.2553   -8.6449 C   0  0  0  0  0  0  0  0  0  0  0  0
  -18.3058  -46.3208   -7.9204 C   0  0  0  0  0  0  0  0  0  0  0  0
  -18.7101  -45.1369   -7.1672 C   0  0  0  0  0  0  0  0  0  0  0  0
  -18.4413  -45.1071   -5.9336 O   0  0  0  0  0  0  0  0  0  0  0  0
  -19.3849  -43.9871   -7.6643 N   0  0  0  0  0  0  0  0  0  0  0  0
  -20.3350  -43.2065   -6.8935 C   0  0  0  0  0  0  0  0  0  0  0  0
  -19.1760  -43.4833   -9.0180 C   0  0  1  0  0  0  0  0  0  0  0  0
  -20.2443  -44.0549   -9.9610 C   0  0  0  0  0  0  0  0  0  0  0  0
  -19.2876  -42.0154   -9.1299 C   0  0  0  0  0  0  0  0  0  0  0  0
  -20.3956  -41.4896   -8.8619 O   0  0  0  0  0  0  0  0  0  0  0  0
  -18.2447  -41.1429   -9.5168 N   0  0  0  0  0  0  0  0  0  0  0  0
  -16.8801  -41.1865   -9.0445 C   0  0  1  0  0  0  0  0  0  0  0  0
  -15.8522  -40.8786  -10.0997 C   0  0  0  0  0  0  0  0  0  0  0  0
  -16.8433  -40.1663   -7.8857 C   0  0  2  0  0  0  0  0  0  0  0  0
  -16.6061  -40.8555   -6.6936 O   0  0  0  0  0  0  0  0  0  0  0  0
  -18.1477  -39.4561   -7.7658 C   0  0  0  0  0  0  0  0  0  0  0  0
  -18.1640  -38.1785   -7.1754 N   0  0  0  0  0  0  0  0  0  0  0  0
  -18.9643  -37.1557   -7.7440 C   0  0  0  0  0  0  0  0  0  0  0  0
  -19.5079  -36.1896   -6.7024 C   0  0  0  0  0  0  0  0  0  0  0  0
  -20.0570  -37.6721   -8.6000 C   0  0  0  0  0  0  0  0  0  0  0  0
  -18.0261  -36.3124   -8.5983 C   0  0  0  0  0  0  0  0  0  0  0  0
  -18.2186  -35.8490   -9.8733 C   0  0  0  0  0  0  0  0  0  0  0  0
  -17.0724  -35.1251  -10.2340 C   0  0  0  0  0  0  0  0  0  0  0  0
  -16.8821  -34.4567  -11.5468 C   0  0  0  0  0  0  0  0  0  0  0  0
  -16.0292  -35.2643  -12.4987 C   0  0  0  0  0  0  0  0  0  0  0  0
  -14.8203  -34.3734  -12.8149 C   0  0  0  0  0  0  0  0  0  0  0  0
  -16.7246  -35.5495  -13.7927 C   0  0  0  0  0  0  0  0  0  0  0  0
  -15.5060  -36.5356  -11.9162 C   0  0  0  0  0  0  0  0  0  0  0  0
  -16.2836  -35.1828   -9.2121 O   0  0  0  0  0  0  0  0  0  0  0  0
  -16.8006  -35.8685   -8.2297 N   0  0  0  0  0  0  0  0  0  0  0  0
  2  1  1  6
  2  3  1  0
  3  4  1  0
  4  5  1  0
  5  6  1  0
  6  7  1  0
  7  8  1  0
  8  9  1  0
  9 10  1  0
 10 11  1  0
 11 12  2  0
 11 13  1  0
 13 14  1  0
 13 15  1  0
 15 16  1  6
 15 17  1  0
 17 18  2  0
 17 19  1  0
 19 20  1  0
 20 21  1  6
 20 22  1  0
 22 23  1  1
 22 24  1  0
 24 25  1  0
 25 26  1  0
 26 27  1  0
 26 28  1  0
 26 29  1  0
 29 30  1  0
 30 31  2  0
 31 32  1  0
 32 33  1  0
 33 34  1  0
 33 35  1  0
 33 36  1  0
 31 37  1  0
 37 38  1  0
 21  2  1  0
 38 29  2  0
M  END
$$$$
