
     RDKit          3D

 38 39  0  0  0  0  0  0  0  0999 V2000
  -11.0291  -39.3256   -7.8401 C   0  0  0  0  0  0  0  0  0  0  0  0
  -12.2294  -40.1876   -8.1682 C   0  0  2  0  0  0  0  0  0  0  0  0
  -11.8533  -41.3490   -8.9899 C   0  0  0  0  0  0  0  0  0  0  0  0
  -11.2088  -41.1111  -10.2939 C   0  0  0  0  0  0  0  0  0  0  0  0
  -11.7263  -42.1424  -11.3048 C   0  0  0  0  0  0  0  0  0  0  0  0
  -11.0617  -43.4670  -11.1932 C   0  0  0  0  0  0  0  0  0  0  0  0
  -11.7159  -44.4460  -10.2758 C   0  0  0  0  0  0  0  0  0  0  0  0
  -13.1509  -44.7527  -10.5946 C   0  0  0  0  0  0  0  0  0  0  0  0
  -13.9468  -44.9548   -9.2950 C   0  0  0  0  0  0  0  0  0  0  0  0
  -15.3543  -45.2949   -9.5550 C   0  0  0  0  0  0  0  0  0  0  0  0
  -16.3710  -44.3963   -9.0155 C   0  0  0  0  0  0  0  0  0  0  0  0
  -16.8921  -44.6996   -7.9057 O   0  0  0  0  0  0  0  0  0  0  0  0
  -16.8574  -43.1937   -9.6002 N   0  0  0  0  0  0  0  0  0  0  0  0
  -18.2215  -42.7177   -9.4628 C   0  0  0  0  0  0  0  0  0  0  0  0
  -16.0105  -42.3180  -10.4040 C   0  0  1  0  0  0  0  0  0  0  0  0
  -16.1645  -42.6613  -11.8925 C   0  0  0  0  0  0  0  0  0  0  0  0
  -16.3538  -40.8870  -10.2859 C   0  0  0  0  0  0  0  0  0  0  0  0
  -17.4899  -40.5224  -10.6760 O   0  0  0  0  0  0  0  0  0  0  0  0
  -15.5051  -39.8824   -9.7669 N   0  0  0  0  0  0  0  0  0  0  0  0
  -14.7092  -39.9788   -8.5651 C   0  0  1  0  0  0  0  0  0  0  0  0
  -13.3562  -39.3277   -8.6677 C   0  0  0  0  0  0  0  0  0  0  0  0
  -15.5842  -39.3257   -7.4730 C   0  0  2  0  0  0  0  0  0  0  0  0
  -15.5909  -40.1587   -6.3511 O   0  0  0  0  0  0  0  0  0  0  0  0
  -16.9878  -39.1654   -7.9469 C   0  0  0  0  0  0  0  0  0  0  0  0
  -17.3214  -38.0084   -8.6759 N   0  0  0  0  0  0  0  0  0  0  0  0
  -18.6817  -37.6294   -8.8018 C   0  0  0  0  0  0  0  0  0  0  0  0
  -19.1203  -36.6521   -7.7219 C   0  0  0  0  0  0  0  0  0  0  0  0
  -19.6088  -38.7822   -8.8726 C   0  0  0  0  0  0  0  0  0  0  0  0
  -18.7801  -36.8380  -10.0999 C   0  0  0  0  0  0  0  0  0  0  0  0
  -19.8702  -36.1969  -10.6274 C   0  0  0  0  0  0  0  0  0  0  0  0
  -19.4687  -35.6148  -11.8389 C   0  0  0  0  0  0  0  0  0  0  0  0
  -20.3615  -34.8256  -12.7259 C   0  0  0  0  0  0  0  0  0  0  0  0
  -20.5121  -33.3890  -12.2794 C   0  0  0  0  0  0  0  0  0  0  0  0
  -21.8657  -33.3286  -11.5586 C   0  0  0  0  0  0  0  0  0  0  0  0
  -20.5752  -32.4334  -13.4293 C   0  0  0  0  0  0  0  0  0  0  0  0
  -19.4696  -32.9420  -11.3086 C   0  0  0  0  0  0  0  0  0  0  0  0
  -18.2199  -35.9165  -11.9777 O   0  0  0  0  0  0  0  0  0  0  0  0
  -17.7734  -36.6327  -10.9825 N   0  0  0  0  0  0  0  0  0  0  0  0
  2  1  1  6
  2  3  1  0
  3  4  1  0
  4  5  1  0
  5  6  1  0
  6  7  1  0
  7  8  1  0
  8  9  1  0
  9 10  1  0
 10 11  1  0
 11 12  2  0
 11 13  1  0
 13 14  1  0
 13 15  1  0
 15 16  1  6
 15 17  1  0
 17 18  2  0
 17 19  1  0
 19 20  1  0
 20 21  1  6
 20 22  1  0
 22 23  1  1
 22 24  1  0
 24 25  1  0
 25 26  1  0
 26 27  1  0
 26 28  1  0
 26 29  1  0
 29 30  1  0
 30 31  2  0
 31 32  1  0
 32 33  1  0
 33 34  1  0
 33 35  1  0
 33 36  1  0
 31 37  1  0
 37 38  1  0
 21  2  1  0
 38 29  2  0
M  END
$$$$
