
     RDKit          3D

 38 39  0  0  0  0  0  0  0  0999 V2000
  -13.3800  -35.9509  -10.3581 C   0  0  0  0  0  0  0  0  0  0  0  0
  -13.7006  -37.4186  -10.1732 C   0  0  2  0  0  0  0  0  0  0  0  0
  -13.0279  -38.2511  -11.1832 C   0  0  0  0  0  0  0  0  0  0  0  0
  -13.3064  -37.9943  -12.6076 C   0  0  0  0  0  0  0  0  0  0  0  0
  -13.3604  -39.3318  -13.3571 C   0  0  0  0  0  0  0  0  0  0  0  0
  -12.0196  -39.8767  -13.6947 C   0  0  0  0  0  0  0  0  0  0  0  0
  -11.4137  -40.7857  -12.6776 C   0  0  0  0  0  0  0  0  0  0  0  0
  -12.2461  -41.9840  -12.3222 C   0  0  0  0  0  0  0  0  0  0  0  0
  -12.0886  -42.3092  -10.8279 C   0  0  0  0  0  0  0  0  0  0  0  0
  -12.8576  -43.5008  -10.4366 C   0  0  0  0  0  0  0  0  0  0  0  0
  -13.8754  -43.3314   -9.4033 C   0  0  0  0  0  0  0  0  0  0  0  0
  -13.5544  -43.6078   -8.2135 O   0  0  0  0  0  0  0  0  0  0  0  0
  -15.2146  -42.8829   -9.5768 N   0  0  0  0  0  0  0  0  0  0  0  0
  -16.3350  -43.3426   -8.7771 C   0  0  0  0  0  0  0  0  0  0  0  0
  -15.5845  -41.9030  -10.5931 C   0  0  1  0  0  0  0  0  0  0  0  0
  -16.0574  -42.6202  -11.8655 C   0  0  0  0  0  0  0  0  0  0  0  0
  -16.6997  -41.0227  -10.1920 C   0  0  0  0  0  0  0  0  0  0  0  0
  -17.8162  -41.5535   -9.9734 O   0  0  0  0  0  0  0  0  0  0  0  0
  -16.6181  -39.6204  -10.0320 N   0  0  0  0  0  0  0  0  0  0  0  0
  -15.5652  -38.9019   -9.3522 C   0  0  1  0  0  0  0  0  0  0  0  0
  -15.1831  -37.6021  -10.0075 C   0  0  0  0  0  0  0  0  0  0  0  0
  -16.1073  -38.6911   -7.9216 C   0  0  2  0  0  0  0  0  0  0  0  0
  -15.4403  -39.5658   -7.0598 O   0  0  0  0  0  0  0  0  0  0  0  0
  -17.5653  -38.9922   -7.8598 C   0  0  0  0  0  0  0  0  0  0  0  0
  -18.4753  -37.9219   -7.9479 N   0  0  0  0  0  0  0  0  0  0  0  0
  -19.8134  -38.1728   -8.3437 C   0  0  0  0  0  0  0  0  0  0  0  0
  -19.9061  -38.8371   -9.7089 C   0  0  0  0  0  0  0  0  0  0  0  0
  -20.6782  -36.9719   -8.2859 C   0  0  0  0  0  0  0  0  0  0  0  0
  -20.3520  -39.2148   -7.3715 C   0  0  0  0  0  0  0  0  0  0  0  0
  -21.4277  -39.1189   -6.5281 C   0  0  0  0  0  0  0  0  0  0  0  0
  -21.5226  -40.3319   -5.8299 C   0  0  0  0  0  0  0  0  0  0  0  0
  -22.5620  -40.6341   -4.8126 C   0  0  0  0  0  0  0  0  0  0  0  0
  -22.2671  -41.8922   -4.0277 C   0  0  0  0  0  0  0  0  0  0  0  0
  -23.4757  -42.0845   -3.1017 C   0  0  0  0  0  0  0  0  0  0  0  0
  -21.0560  -41.7571   -3.1593 C   0  0  0  0  0  0  0  0  0  0  0  0
  -22.1501  -43.1199   -4.8692 C   0  0  0  0  0  0  0  0  0  0  0  0
  -20.5500  -41.0644   -6.2629 O   0  0  0  0  0  0  0  0  0  0  0  0
  -19.8372  -40.4509   -7.1675 N   0  0  0  0  0  0  0  0  0  0  0  0
  2  1  1  6
  2  3  1  0
  3  4  1  0
  4  5  1  0
  5  6  1  0
  6  7  1  0
  7  8  1  0
  8  9  1  0
  9 10  1  0
 10 11  1  0
 11 12  2  0
 11 13  1  0
 13 14  1  0
 13 15  1  0
 15 16  1  6
 15 17  1  0
 17 18  2  0
 17 19  1  0
 19 20  1  0
 20 21  1  6
 20 22  1  0
 22 23  1  1
 22 24  1  0
 24 25  1  0
 25 26  1  0
 26 27  1  0
 26 28  1  0
 26 29  1  0
 29 30  1  0
 30 31  2  0
 31 32  1  0
 32 33  1  0
 33 34  1  0
 33 35  1  0
 33 36  1  0
 31 37  1  0
 37 38  1  0
 21  2  1  0
 38 29  2  0
M  END
$$$$
