
     RDKit          3D

 38 39  0  0  0  0  0  0  0  0999 V2000
  -20.8656  -37.8726   -6.1917 C   0  0  0  0  0  0  0  0  0  0  0  0
  -20.3423  -39.1692   -6.7717 C   0  0  2  0  0  0  0  0  0  0  0  0
  -21.2894  -40.2762   -6.5640 C   0  0  0  0  0  0  0  0  0  0  0  0
  -21.6758  -40.6242   -5.1849 C   0  0  0  0  0  0  0  0  0  0  0  0
  -21.8053  -42.1484   -5.0697 C   0  0  0  0  0  0  0  0  0  0  0  0
  -23.0952  -42.6746   -5.5874 C   0  0  0  0  0  0  0  0  0  0  0  0
  -23.1073  -43.0585   -7.0297 C   0  0  0  0  0  0  0  0  0  0  0  0
  -22.0805  -44.0816   -7.4223 C   0  0  0  0  0  0  0  0  0  0  0  0
  -21.5482  -43.7783   -8.8323 C   0  0  0  0  0  0  0  0  0  0  0  0
  -20.5637  -44.7761   -9.2789 C   0  0  0  0  0  0  0  0  0  0  0  0
  -19.2263  -44.2942   -9.6127 C   0  0  0  0  0  0  0  0  0  0  0  0
  -18.9763  -44.0534  -10.8270 O   0  0  0  0  0  0  0  0  0  0  0  0
  -18.1461  -44.0576   -8.7173 N   0  0  0  0  0  0  0  0  0  0  0  0
  -16.7494  -44.2520   -9.0603 C   0  0  0  0  0  0  0  0  0  0  0  0
  -18.3530  -43.5898   -7.3504 C   0  0  1  0  0  0  0  0  0  0  0  0
  -18.3961  -44.7852   -6.3879 C   0  0  0  0  0  0  0  0  0  0  0  0
  -17.2742  -42.7137   -6.8522 C   0  0  0  0  0  0  0  0  0  0  0  0
  -16.1219  -43.2018   -6.7517 O   0  0  0  0  0  0  0  0  0  0  0  0
  -17.4284  -41.3601   -6.4746 N   0  0  0  0  0  0  0  0  0  0  0  0
  -18.1595  -40.3512   -7.2059 C   0  0  1  0  0  0  0  0  0  0  0  0
  -18.9211  -39.3889   -6.3348 C   0  0  0  0  0  0  0  0  0  0  0  0
  -17.0836  -39.6375   -8.0532 C   0  0  2  0  0  0  0  0  0  0  0  0
  -17.6229  -39.3552   -9.3110 O   0  0  0  0  0  0  0  0  0  0  0  0
  -15.8918  -40.5123   -8.2391 C   0  0  0  0  0  0  0  0  0  0  0  0
  -15.2928  -40.5681   -9.5117 N   0  0  0  0  0  0  0  0  0  0  0  0
  -13.9792  -40.0653   -9.6888 C   0  0  0  0  0  0  0  0  0  0  0  0
  -13.1385  -40.9340  -10.6120 C   0  0  0  0  0  0  0  0  0  0  0  0
  -13.2686  -39.8159   -8.4136 C   0  0  0  0  0  0  0  0  0  0  0  0
  -14.1303  -38.7454  -10.4346 C   0  0  0  0  0  0  0  0  0  0  0  0
  -13.2989  -37.6563  -10.4178 C   0  0  0  0  0  0  0  0  0  0  0  0
  -13.8628  -36.6853  -11.2588 C   0  0  0  0  0  0  0  0  0  0  0  0
  -13.2657  -35.3495  -11.5147 C   0  0  0  0  0  0  0  0  0  0  0  0
  -12.5257  -35.2795  -12.8312 C   0  0  0  0  0  0  0  0  0  0  0  0
  -11.6136  -36.5136  -12.8493 C   0  0  0  0  0  0  0  0  0  0  0  0
  -11.6466  -34.0728  -12.9330 C   0  0  0  0  0  0  0  0  0  0  0  0
  -13.4108  -35.3615  -14.0307 C   0  0  0  0  0  0  0  0  0  0  0  0
  -14.9513  -37.2078  -11.7194 O   0  0  0  0  0  0  0  0  0  0  0  0
  -15.1490  -38.4143  -11.2635 N   0  0  0  0  0  0  0  0  0  0  0  0
  2  1  1  1
  2  3  1  0
  3  4  1  0
  4  5  1  0
  5  6  1  0
  6  7  1  0
  7  8  1  0
  8  9  1  0
  9 10  1  0
 10 11  1  0
 11 12  2  0
 11 13  1  0
 13 14  1  0
 13 15  1  0
 15 16  1  1
 15 17  1  0
 17 18  2  0
 17 19  1  0
 19 20  1  0
 20 21  1  1
 20 22  1  0
 22 23  1  6
 22 24  1  0
 24 25  1  0
 25 26  1  0
 26 27  1  0
 26 28  1  0
 26 29  1  0
 29 30  1  0
 30 31  2  0
 31 32  1  0
 32 33  1  0
 33 34  1  0
 33 35  1  0
 33 36  1  0
 31 37  1  0
 37 38  1  0
 21  2  1  0
 38 29  2  0
M  END
$$$$
