
     RDKit          3D

 38 39  0  0  0  0  0  0  0  0999 V2000
  -20.3824  -37.1321   -5.5910 C   0  0  0  0  0  0  0  0  0  0  0  0
  -20.1199  -38.3428   -6.4608 C   0  0  2  0  0  0  0  0  0  0  0  0
  -21.2932  -39.2287   -6.5239 C   0  0  0  0  0  0  0  0  0  0  0  0
  -21.8207  -39.7907   -5.2676 C   0  0  0  0  0  0  0  0  0  0  0  0
  -22.2818  -41.2323   -5.5177 C   0  0  0  0  0  0  0  0  0  0  0  0
  -23.6244  -41.3244   -6.1483 C   0  0  0  0  0  0  0  0  0  0  0  0
  -23.6398  -41.3524   -7.6406 C   0  0  0  0  0  0  0  0  0  0  0  0
  -22.8377  -42.4592   -8.2624 C   0  0  0  0  0  0  0  0  0  0  0  0
  -22.1759  -41.9649   -9.5589 C   0  0  0  0  0  0  0  0  0  0  0  0
  -21.4066  -43.0258  -10.2273 C   0  0  0  0  0  0  0  0  0  0  0  0
  -19.9805  -42.7898  -10.4343 C   0  0  0  0  0  0  0  0  0  0  0  0
  -19.6182  -42.3370  -11.5562 O   0  0  0  0  0  0  0  0  0  0  0  0
  -18.9255  -43.0126   -9.5058 N   0  0  0  0  0  0  0  0  0  0  0  0
  -17.5869  -43.4282   -9.8820 C   0  0  0  0  0  0  0  0  0  0  0  0
  -19.1015  -42.8390   -8.0675 C   0  0  1  0  0  0  0  0  0  0  0  0
  -19.4540  -44.1839   -7.4162 C   0  0  0  0  0  0  0  0  0  0  0  0
  -17.8882  -42.3641   -7.3732 C   0  0  0  0  0  0  0  0  0  0  0  0
  -16.8755  -43.1059   -7.3888 O   0  0  0  0  0  0  0  0  0  0  0  0
  -17.7675  -41.1348   -6.6856 N   0  0  0  0  0  0  0  0  0  0  0  0
  -18.2227  -39.8477   -7.1582 C   0  0  1  0  0  0  0  0  0  0  0  0
  -18.8057  -38.9679   -6.0854 C   0  0  0  0  0  0  0  0  0  0  0  0
  -16.9734  -39.2154   -7.8096 C   0  0  2  0  0  0  0  0  0  0  0  0
  -17.3920  -38.2646   -8.7441 O   0  0  0  0  0  0  0  0  0  0  0  0
  -16.1680  -40.2485   -8.5197 C   0  0  0  0  0  0  0  0  0  0  0  0
  -15.0340  -39.8342   -9.2435 N   0  0  0  0  0  0  0  0  0  0  0  0
  -14.4222  -40.7293  -10.1569 C   0  0  0  0  0  0  0  0  0  0  0  0
  -15.3624  -41.1633  -11.2711 C   0  0  0  0  0  0  0  0  0  0  0  0
  -13.8067  -41.9069   -9.5028 C   0  0  0  0  0  0  0  0  0  0  0  0
  -13.3322  -39.9320  -10.8621 C   0  0  0  0  0  0  0  0  0  0  0  0
  -13.4649  -39.0085  -11.8656 C   0  0  0  0  0  0  0  0  0  0  0  0
  -12.1783  -38.5522  -12.1884 C   0  0  0  0  0  0  0  0  0  0  0  0
  -11.8865  -37.5387  -13.2345 C   0  0  0  0  0  0  0  0  0  0  0  0
  -11.9608  -36.1207  -12.7152 C   0  0  0  0  0  0  0  0  0  0  0  0
  -13.4295  -35.9091  -12.3237 C   0  0  0  0  0  0  0  0  0  0  0  0
  -11.6274  -35.1065  -13.7639 C   0  0  0  0  0  0  0  0  0  0  0  0
  -11.1345  -35.8761  -11.4960 C   0  0  0  0  0  0  0  0  0  0  0  0
  -11.3720  -39.1889  -11.4045 O   0  0  0  0  0  0  0  0  0  0  0  0
  -12.0036  -40.0087  -10.6098 N   0  0  0  0  0  0  0  0  0  0  0  0
  2  1  1  1
  2  3  1  0
  3  4  1  0
  4  5  1  0
  5  6  1  0
  6  7  1  0
  7  8  1  0
  8  9  1  0
  9 10  1  0
 10 11  1  0
 11 12  2  0
 11 13  1  0
 13 14  1  0
 13 15  1  0
 15 16  1  1
 15 17  1  0
 17 18  2  0
 17 19  1  0
 19 20  1  0
 20 21  1  1
 20 22  1  0
 22 23  1  6
 22 24  1  0
 24 25  1  0
 25 26  1  0
 26 27  1  0
 26 28  1  0
 26 29  1  0
 29 30  1  0
 30 31  2  0
 31 32  1  0
 32 33  1  0
 33 34  1  0
 33 35  1  0
 33 36  1  0
 31 37  1  0
 37 38  1  0
 21  2  1  0
 38 29  2  0
M  END
$$$$
