
     RDKit          3D

 38 39  0  0  0  0  0  0  0  0999 V2000
  -20.5531  -37.3098  -10.0472 C   0  0  0  0  0  0  0  0  0  0  0  0
  -20.3415  -38.6823   -9.4448 C   0  0  2  0  0  0  0  0  0  0  0  0
  -21.4198  -39.0341   -8.5073 C   0  0  0  0  0  0  0  0  0  0  0  0
  -21.6570  -38.1593   -7.3451 C   0  0  0  0  0  0  0  0  0  0  0  0
  -22.0205  -39.0247   -6.1317 C   0  0  0  0  0  0  0  0  0  0  0  0
  -23.4406  -39.4626   -6.1199 C   0  0  0  0  0  0  0  0  0  0  0  0
  -23.7231  -40.7670   -6.7881 C   0  0  0  0  0  0  0  0  0  0  0  0
  -22.9478  -41.9356   -6.2511 C   0  0  0  0  0  0  0  0  0  0  0  0
  -22.5802  -42.8936   -7.3958 C   0  0  0  0  0  0  0  0  0  0  0  0
  -21.8496  -44.0765   -6.9148 C   0  0  0  0  0  0  0  0  0  0  0  0
  -20.5126  -44.3036   -7.4560 C   0  0  0  0  0  0  0  0  0  0  0  0
  -20.4026  -45.0964   -8.4330 O   0  0  0  0  0  0  0  0  0  0  0  0
  -19.2910  -43.7282   -7.0073 N   0  0  0  0  0  0  0  0  0  0  0  0
  -18.0099  -44.4089   -7.0466 C   0  0  0  0  0  0  0  0  0  0  0  0
  -19.2192  -42.3778   -6.4585 C   0  0  1  0  0  0  0  0  0  0  0  0
  -19.3221  -42.4278   -4.9274 C   0  0  0  0  0  0  0  0  0  0  0  0
  -17.9495  -41.6838   -6.7516 C   0  0  0  0  0  0  0  0  0  0  0  0
  -16.8922  -42.1738   -6.2847 O   0  0  0  0  0  0  0  0  0  0  0  0
  -17.8206  -40.5038   -7.5195 N   0  0  0  0  0  0  0  0  0  0  0  0
  -18.4708  -40.2350   -8.7813 C   0  0  1  0  0  0  0  0  0  0  0  0
  -18.9289  -38.8112   -8.9479 C   0  0  0  0  0  0  0  0  0  0  0  0
  -17.4239  -40.6341   -9.8441 C   0  0  2  0  0  0  0  0  0  0  0  0
  -17.6110  -41.9800  -10.1695 O   0  0  0  0  0  0  0  0  0  0  0  0
  -16.0419  -40.4674   -9.3125 C   0  0  0  0  0  0  0  0  0  0  0  0
  -14.9785  -41.0739  -10.0073 N   0  0  0  0  0  0  0  0  0  0  0  0
  -14.5388  -40.5187  -11.2354 C   0  0  0  0  0  0  0  0  0  0  0  0
  -15.5985  -40.5910  -12.3242 C   0  0  0  0  0  0  0  0  0  0  0  0
  -13.2578  -41.0885  -11.7127 C   0  0  0  0  0  0  0  0  0  0  0  0
  -14.3502  -39.0285  -10.9805 C   0  0  0  0  0  0  0  0  0  0  0  0
  -14.0942  -38.0338  -11.8874 C   0  0  0  0  0  0  0  0  0  0  0  0
  -13.9976  -36.8301  -11.1736 C   0  0  0  0  0  0  0  0  0  0  0  0
  -13.7258  -35.5077  -11.7933 C   0  0  0  0  0  0  0  0  0  0  0  0
  -12.7763  -34.6606  -10.9768 C   0  0  0  0  0  0  0  0  0  0  0  0
  -12.5540  -33.3881  -11.8054 C   0  0  0  0  0  0  0  0  0  0  0  0
  -11.4416  -35.3110  -10.7900 C   0  0  0  0  0  0  0  0  0  0  0  0
  -13.3226  -34.2406   -9.6523 C   0  0  0  0  0  0  0  0  0  0  0  0
  -14.1902  -37.1396   -9.9338 O   0  0  0  0  0  0  0  0  0  0  0  0
  -14.4008  -38.4173   -9.7728 N   0  0  0  0  0  0  0  0  0  0  0  0
  2  1  1  1
  2  3  1  0
  3  4  1  0
  4  5  1  0
  5  6  1  0
  6  7  1  0
  7  8  1  0
  8  9  1  0
  9 10  1  0
 10 11  1  0
 11 12  2  0
 11 13  1  0
 13 14  1  0
 13 15  1  0
 15 16  1  1
 15 17  1  0
 17 18  2  0
 17 19  1  0
 19 20  1  0
 20 21  1  1
 20 22  1  0
 22 23  1  1
 22 24  1  0
 24 25  1  0
 25 26  1  0
 26 27  1  0
 26 28  1  0
 26 29  1  0
 29 30  1  0
 30 31  2  0
 31 32  1  0
 32 33  1  0
 33 34  1  0
 33 35  1  0
 33 36  1  0
 31 37  1  0
 37 38  1  0
 21  2  1  0
 38 29  2  0
M  END
$$$$
