
     RDKit          3D

 38 39  0  0  0  0  0  0  0  0999 V2000
  -20.8765  -36.9261   -7.8024 C   0  0  0  0  0  0  0  0  0  0  0  0
  -20.6204  -38.4180   -7.8089 C   0  0  2  0  0  0  0  0  0  0  0  0
  -21.4299  -39.1107   -6.7938 C   0  0  0  0  0  0  0  0  0  0  0  0
  -21.2737  -38.7208   -5.3811 C   0  0  0  0  0  0  0  0  0  0  0  0
  -21.3638  -39.9746   -4.5018 C   0  0  0  0  0  0  0  0  0  0  0  0
  -22.7582  -40.4213   -4.2473 C   0  0  0  0  0  0  0  0  0  0  0  0
  -23.3139  -41.4026   -5.2251 C   0  0  0  0  0  0  0  0  0  0  0  0
  -22.5183  -42.6672   -5.3761 C   0  0  0  0  0  0  0  0  0  0  0  0
  -22.5513  -43.1378   -6.8393 C   0  0  0  0  0  0  0  0  0  0  0  0
  -21.8149  -44.3966   -7.0328 C   0  0  0  0  0  0  0  0  0  0  0  0
  -20.6963  -44.3805   -7.9713 C   0  0  0  0  0  0  0  0  0  0  0  0
  -20.9180  -44.7638   -9.1540 O   0  0  0  0  0  0  0  0  0  0  0  0
  -19.3571  -43.9768   -7.7104 N   0  0  0  0  0  0  0  0  0  0  0  0
  -18.1928  -44.5663   -8.3453 C   0  0  0  0  0  0  0  0  0  0  0  0
  -19.0320  -42.9146   -6.7637 C   0  0  1  0  0  0  0  0  0  0  0  0
  -18.7212  -43.5168   -5.3861 C   0  0  0  0  0  0  0  0  0  0  0  0
  -17.8375  -42.1311   -7.1366 C   0  0  0  0  0  0  0  0  0  0  0  0
  -16.7360  -42.7311   -7.1896 O   0  0  0  0  0  0  0  0  0  0  0  0
  -17.8270  -40.7507   -7.4414 N   0  0  0  0  0  0  0  0  0  0  0  0
  -18.7702  -40.0600   -8.2900 C   0  0  1  0  0  0  0  0  0  0  0  0
  -19.1411  -38.6836   -7.8073 C   0  0  0  0  0  0  0  0  0  0  0  0
  -18.0846  -40.0227   -9.6734 C   0  0  2  0  0  0  0  0  0  0  0  0
  -18.9465  -40.5950  -10.6126 O   0  0  0  0  0  0  0  0  0  0  0  0
  -16.8193  -40.8093   -9.6569 C   0  0  0  0  0  0  0  0  0  0  0  0
  -16.1986  -41.1069  -10.8847 N   0  0  0  0  0  0  0  0  0  0  0  0
  -14.7864  -41.2166  -10.9457 C   0  0  0  0  0  0  0  0  0  0  0  0
  -14.2944  -41.7054  -12.2995 C   0  0  0  0  0  0  0  0  0  0  0  0
  -14.2129  -42.0355   -9.8531 C   0  0  0  0  0  0  0  0  0  0  0  0
  -14.2482  -39.7959  -10.8308 C   0  0  0  0  0  0  0  0  0  0  0  0
  -12.9465  -39.3706  -10.8783 C   0  0  0  0  0  0  0  0  0  0  0  0
  -12.9548  -37.9766  -10.7216 C   0  0  0  0  0  0  0  0  0  0  0  0
  -11.7364  -37.1268  -10.7149 C   0  0  0  0  0  0  0  0  0  0  0  0
  -11.2610  -36.7931   -9.3190 C   0  0  0  0  0  0  0  0  0  0  0  0
  -11.9299  -37.8285   -8.4049 C   0  0  0  0  0  0  0  0  0  0  0  0
  -11.7120  -35.4399   -8.8664 C   0  0  0  0  0  0  0  0  0  0  0  0
   -9.7851  -36.9213   -9.1331 C   0  0  0  0  0  0  0  0  0  0  0  0
  -14.1970  -37.6441  -10.5939 O   0  0  0  0  0  0  0  0  0  0  0  0
  -14.9913  -38.6777  -10.6515 N   0  0  0  0  0  0  0  0  0  0  0  0
  2  1  1  1
  2  3  1  0
  3  4  1  0
  4  5  1  0
  5  6  1  0
  6  7  1  0
  7  8  1  0
  8  9  1  0
  9 10  1  0
 10 11  1  0
 11 12  2  0
 11 13  1  0
 13 14  1  0
 13 15  1  0
 15 16  1  1
 15 17  1  0
 17 18  2  0
 17 19  1  0
 19 20  1  0
 20 21  1  1
 20 22  1  0
 22 23  1  6
 22 24  1  0
 24 25  1  0
 25 26  1  0
 26 27  1  0
 26 28  1  0
 26 29  1  0
 29 30  1  0
 30 31  2  0
 31 32  1  0
 32 33  1  0
 33 34  1  0
 33 35  1  0
 33 36  1  0
 31 37  1  0
 37 38  1  0
 21  2  1  0
 38 29  2  0
M  END
$$$$
