
     RDKit          3D

 38 39  0  0  0  0  0  0  0  0999 V2000
  -19.7704  -36.5979   -5.5703 C   0  0  0  0  0  0  0  0  0  0  0  0
  -19.5799  -37.9544   -6.2144 C   0  0  2  0  0  0  0  0  0  0  0  0
  -20.8033  -38.7684   -6.1340 C   0  0  0  0  0  0  0  0  0  0  0  0
  -21.3619  -39.0721   -4.8043 C   0  0  0  0  0  0  0  0  0  0  0  0
  -21.9070  -40.5061   -4.8049 C   0  0  0  0  0  0  0  0  0  0  0  0
  -23.2531  -40.6284   -5.4227 C   0  0  0  0  0  0  0  0  0  0  0  0
  -23.2712  -40.9143   -6.8876 C   0  0  0  0  0  0  0  0  0  0  0  0
  -22.5358  -42.1568   -7.3003 C   0  0  0  0  0  0  0  0  0  0  0  0
  -21.8472  -41.9344   -8.6566 C   0  0  0  0  0  0  0  0  0  0  0  0
  -21.1419  -43.1381   -9.1234 C   0  0  0  0  0  0  0  0  0  0  0  0
  -19.7046  -43.0246   -9.3547 C   0  0  0  0  0  0  0  0  0  0  0  0
  -19.3171  -42.7953  -10.5347 O   0  0  0  0  0  0  0  0  0  0  0  0
  -18.6638  -43.1435   -8.3917 N   0  0  0  0  0  0  0  0  0  0  0  0
  -17.3521  -43.6949   -8.6773 C   0  0  0  0  0  0  0  0  0  0  0  0
  -18.8283  -42.7127   -7.0070 C   0  0  1  0  0  0  0  0  0  0  0  0
  -19.2586  -43.9013   -6.1356 C   0  0  0  0  0  0  0  0  0  0  0  0
  -17.5887  -42.1955   -6.3941 C   0  0  0  0  0  0  0  0  0  0  0  0
  -16.6213  -42.9861   -6.2712 O   0  0  0  0  0  0  0  0  0  0  0  0
  -17.3956  -40.8745   -5.9291 N   0  0  0  0  0  0  0  0  0  0  0  0
  -17.7748  -39.6650   -6.6221 C   0  0  1  0  0  0  0  0  0  0  0  0
  -18.3044  -38.5798   -5.7238 C   0  0  0  0  0  0  0  0  0  0  0  0
  -16.4910  -39.2288   -7.3614 C   0  0  2  0  0  0  0  0  0  0  0  0
  -16.7885  -38.1139   -8.1495 O   0  0  0  0  0  0  0  0  0  0  0  0
  -15.9999  -40.3166   -8.2534 C   0  0  0  0  0  0  0  0  0  0  0  0
  -15.0095  -40.0080   -9.2048 N   0  0  0  0  0  0  0  0  0  0  0  0
  -14.6856  -40.9548  -10.2091 C   0  0  0  0  0  0  0  0  0  0  0  0
  -14.2665  -42.2992   -9.6340 C   0  0  0  0  0  0  0  0  0  0  0  0
  -13.6790  -40.4629  -11.1777 C   0  0  0  0  0  0  0  0  0  0  0  0
  -15.9844  -41.2421  -10.9518 C   0  0  0  0  0  0  0  0  0  0  0  0
  -16.5530  -42.4556  -11.2375 C   0  0  0  0  0  0  0  0  0  0  0  0
  -17.7406  -42.2069  -11.9416 C   0  0  0  0  0  0  0  0  0  0  0  0
  -18.6579  -43.2647  -12.4377 C   0  0  0  0  0  0  0  0  0  0  0  0
  -19.7661  -43.5865  -11.4609 C   0  0  0  0  0  0  0  0  0  0  0  0
  -20.3045  -44.9562  -11.8959 C   0  0  0  0  0  0  0  0  0  0  0  0
  -20.9014  -42.6148  -11.5394 C   0  0  0  0  0  0  0  0  0  0  0  0
  -19.3096  -43.7158  -10.0453 C   0  0  0  0  0  0  0  0  0  0  0  0
  -17.8278  -40.9215  -12.0418 O   0  0  0  0  0  0  0  0  0  0  0  0
  -16.8206  -40.3145  -11.4764 N   0  0  0  0  0  0  0  0  0  0  0  0
  2  1  1  1
  2  3  1  0
  3  4  1  0
  4  5  1  0
  5  6  1  0
  6  7  1  0
  7  8  1  0
  8  9  1  0
  9 10  1  0
 10 11  1  0
 11 12  2  0
 11 13  1  0
 13 14  1  0
 13 15  1  0
 15 16  1  1
 15 17  1  0
 17 18  2  0
 17 19  1  0
 19 20  1  0
 20 21  1  1
 20 22  1  0
 22 23  1  6
 22 24  1  0
 24 25  1  0
 25 26  1  0
 26 27  1  0
 26 28  1  0
 26 29  1  0
 29 30  1  0
 30 31  2  0
 31 32  1  0
 32 33  1  0
 33 34  1  0
 33 35  1  0
 33 36  1  0
 31 37  1  0
 37 38  1  0
 21  2  1  0
 38 29  2  0
M  END
$$$$
