
     RDKit          3D

 38 39  0  0  0  0  0  0  0  0999 V2000
  -20.9909  -37.1300   -6.5038 C   0  0  0  0  0  0  0  0  0  0  0  0
  -20.5975  -38.5372   -6.8993 C   0  0  2  0  0  0  0  0  0  0  0  0
  -21.4414  -39.5425   -6.2337 C   0  0  0  0  0  0  0  0  0  0  0  0
  -21.4719  -39.5735   -4.7605 C   0  0  0  0  0  0  0  0  0  0  0  0
  -21.5367  -41.0325   -4.2907 C   0  0  0  0  0  0  0  0  0  0  0  0
  -22.9024  -41.6153   -4.3533 C   0  0  0  0  0  0  0  0  0  0  0  0
  -23.2582  -42.2992   -5.6314 C   0  0  0  0  0  0  0  0  0  0  0  0
  -22.3367  -43.4156   -6.0310 C   0  0  0  0  0  0  0  0  0  0  0  0
  -22.1713  -43.4396   -7.5592 C   0  0  0  0  0  0  0  0  0  0  0  0
  -21.3045  -44.5414   -8.0051 C   0  0  0  0  0  0  0  0  0  0  0  0
  -20.0997  -44.1863   -8.7498 C   0  0  0  0  0  0  0  0  0  0  0  0
  -20.1589  -44.2199  -10.0109 O   0  0  0  0  0  0  0  0  0  0  0  0
  -18.8389  -43.7982   -8.2165 N   0  0  0  0  0  0  0  0  0  0  0  0
  -17.5644  -44.1071   -8.8382 C   0  0  0  0  0  0  0  0  0  0  0  0
  -18.7158  -43.0414   -6.9747 C   0  0  1  0  0  0  0  0  0  0  0  0
  -18.4970  -44.0003   -5.7958 C   0  0  0  0  0  0  0  0  0  0  0  0
  -17.5669  -42.1144   -6.9549 C   0  0  0  0  0  0  0  0  0  0  0  0
  -16.4149  -42.6068   -7.0343 O   0  0  0  0  0  0  0  0  0  0  0  0
  -17.6532  -40.7070   -6.8529 N   0  0  0  0  0  0  0  0  0  0  0  0
  -18.5621  -39.8554   -7.5848 C   0  0  1  0  0  0  0  0  0  0  0  0
  -19.1084  -38.7042   -6.7839 C   0  0  0  0  0  0  0  0  0  0  0  0
  -17.7411  -39.3756   -8.8016 C   0  0  2  0  0  0  0  0  0  0  0  0
  -18.4999  -39.5770   -9.9575 O   0  0  0  0  0  0  0  0  0  0  0  0
  -16.4781  -40.1561   -8.9273 C   0  0  0  0  0  0  0  0  0  0  0  0
  -15.7156  -40.0134  -10.1019 N   0  0  0  0  0  0  0  0  0  0  0  0
  -14.3076  -39.8764  -10.0091 C   0  0  0  0  0  0  0  0  0  0  0  0
  -13.5709  -41.1697  -10.3225 C   0  0  0  0  0  0  0  0  0  0  0  0
  -13.8557  -39.3167   -8.7145 C   0  0  0  0  0  0  0  0  0  0  0  0
  -13.9026  -38.9227  -11.1261 C   0  0  0  0  0  0  0  0  0  0  0  0
  -12.7741  -38.1515  -11.2218 C   0  0  0  0  0  0  0  0  0  0  0  0
  -12.8534  -37.4399  -12.4281 C   0  0  0  0  0  0  0  0  0  0  0  0
  -11.8207  -36.4859  -12.9078 C   0  0  0  0  0  0  0  0  0  0  0  0
  -12.1659  -35.8703  -14.2448 C   0  0  0  0  0  0  0  0  0  0  0  0
  -12.6296  -34.4426  -13.9259 C   0  0  0  0  0  0  0  0  0  0  0  0
  -13.3028  -36.5684  -14.9226 C   0  0  0  0  0  0  0  0  0  0  0  0
  -11.0083  -35.7645  -15.1818 C   0  0  0  0  0  0  0  0  0  0  0  0
  -13.9684  -37.7972  -12.9749 O   0  0  0  0  0  0  0  0  0  0  0  0
  -14.6172  -38.6648  -12.2475 N   0  0  0  0  0  0  0  0  0  0  0  0
  2  1  1  1
  2  3  1  0
  3  4  1  0
  4  5  1  0
  5  6  1  0
  6  7  1  0
  7  8  1  0
  8  9  1  0
  9 10  1  0
 10 11  1  0
 11 12  2  0
 11 13  1  0
 13 14  1  0
 13 15  1  0
 15 16  1  1
 15 17  1  0
 17 18  2  0
 17 19  1  0
 19 20  1  0
 20 21  1  1
 20 22  1  0
 22 23  1  6
 22 24  1  0
 24 25  1  0
 25 26  1  0
 26 27  1  0
 26 28  1  0
 26 29  1  0
 29 30  1  0
 30 31  2  0
 31 32  1  0
 32 33  1  0
 33 34  1  0
 33 35  1  0
 33 36  1  0
 31 37  1  0
 37 38  1  0
 21  2  1  0
 38 29  2  0
M  END
$$$$
