
     RDKit          3D

 38 39  0  0  0  0  0  0  0  0999 V2000
  -14.2380  -35.0763   -9.3113 C   0  0  0  0  0  0  0  0  0  0  0  0
  -14.0916  -36.5539   -9.6053 C   0  0  2  0  0  0  0  0  0  0  0  0
  -13.4247  -36.7855  -10.8965 C   0  0  0  0  0  0  0  0  0  0  0  0
  -14.0382  -36.2308  -12.1164 C   0  0  0  0  0  0  0  0  0  0  0  0
  -13.8615  -37.2310  -13.2661 C   0  0  0  0  0  0  0  0  0  0  0  0
  -12.5153  -37.1809  -13.8937 C   0  0  0  0  0  0  0  0  0  0  0  0
  -11.4914  -38.0949  -13.3071 C   0  0  0  0  0  0  0  0  0  0  0  0
  -11.8678  -39.5486  -13.3016 C   0  0  0  0  0  0  0  0  0  0  0  0
  -11.3352  -40.2251  -12.0280 C   0  0  0  0  0  0  0  0  0  0  0  0
  -11.6469  -41.6624  -11.9927 C   0  0  0  0  0  0  0  0  0  0  0  0
  -12.4477  -42.1465  -10.8717 C   0  0  0  0  0  0  0  0  0  0  0  0
  -11.8348  -42.6365   -9.8821 O   0  0  0  0  0  0  0  0  0  0  0  0
  -13.8657  -42.1335  -10.7553 N   0  0  0  0  0  0  0  0  0  0  0  0
  -14.6325  -43.1483  -10.0564 C   0  0  0  0  0  0  0  0  0  0  0  0
  -14.6876  -41.0785  -11.3396 C   0  0  1  0  0  0  0  0  0  0  0  0
  -15.1810  -41.5068  -12.7289 C   0  0  0  0  0  0  0  0  0  0  0  0
  -15.9034  -40.7717  -10.5602 C   0  0  0  0  0  0  0  0  0  0  0  0
  -16.7607  -41.6795  -10.4297 O   0  0  0  0  0  0  0  0  0  0  0  0
  -16.1882  -39.5322   -9.9430 N   0  0  0  0  0  0  0  0  0  0  0  0
  -15.2666  -38.7389   -9.1629 C   0  0  1  0  0  0  0  0  0  0  0  0
  -15.4006  -37.2546   -9.3720 C   0  0  0  0  0  0  0  0  0  0  0  0
  -15.5539  -39.1455   -7.7010 C   0  0  2  0  0  0  0  0  0  0  0  0
  -14.3898  -39.6917   -7.1541 O   0  0  0  0  0  0  0  0  0  0  0  0
  -16.6288  -40.1757   -7.6410 C   0  0  0  0  0  0  0  0  0  0  0  0
  -17.9695  -39.7469   -7.6437 N   0  0  0  0  0  0  0  0  0  0  0  0
  -18.9542  -40.5265   -6.9860 C   0  0  0  0  0  0  0  0  0  0  0  0
  -18.7541  -40.5737   -5.4788 C   0  0  0  0  0  0  0  0  0  0  0  0
  -19.0876  -41.8937   -7.5396 C   0  0  0  0  0  0  0  0  0  0  0  0
  -20.2728  -39.7875   -7.1761 C   0  0  0  0  0  0  0  0  0  0  0  0
  -21.1262  -39.8275   -8.2474 C   0  0  0  0  0  0  0  0  0  0  0  0
  -22.2021  -38.9749   -7.9586 C   0  0  0  0  0  0  0  0  0  0  0  0
  -23.3503  -38.7362   -8.8703 C   0  0  0  0  0  0  0  0  0  0  0  0
  -24.6847  -38.7953   -8.1619 C   0  0  0  0  0  0  0  0  0  0  0  0
  -25.6097  -39.5764   -9.1050 C   0  0  0  0  0  0  0  0  0  0  0  0
  -25.2900  -37.4414   -7.9626 C   0  0  0  0  0  0  0  0  0  0  0  0
  -24.6505  -39.5290   -6.8621 C   0  0  0  0  0  0  0  0  0  0  0  0
  -21.9595  -38.4863   -6.7871 O   0  0  0  0  0  0  0  0  0  0  0  0
  -20.8394  -38.9342   -6.2897 N   0  0  0  0  0  0  0  0  0  0  0  0
  2  1  1  6
  2  3  1  0
  3  4  1  0
  4  5  1  0
  5  6  1  0
  6  7  1  0
  7  8  1  0
  8  9  1  0
  9 10  1  0
 10 11  1  0
 11 12  2  0
 11 13  1  0
 13 14  1  0
 13 15  1  0
 15 16  1  6
 15 17  1  0
 17 18  2  0
 17 19  1  0
 19 20  1  0
 20 21  1  1
 20 22  1  0
 22 23  1  6
 22 24  1  0
 24 25  1  0
 25 26  1  0
 26 27  1  0
 26 28  1  0
 26 29  1  0
 29 30  1  0
 30 31  2  0
 31 32  1  0
 32 33  1  0
 33 34  1  0
 33 35  1  0
 33 36  1  0
 31 37  1  0
 37 38  1  0
 21  2  1  0
 38 29  2  0
M  END
$$$$
