
     RDKit          3D

 38 39  0  0  0  0  0  0  0  0999 V2000
  -21.1203  -37.5584   -9.4165 C   0  0  0  0  0  0  0  0  0  0  0  0
  -20.7695  -38.9248   -8.8676 C   0  0  2  0  0  0  0  0  0  0  0  0
  -21.6880  -39.3278   -7.7909 C   0  0  0  0  0  0  0  0  0  0  0  0
  -21.7925  -38.4715   -6.5959 C   0  0  0  0  0  0  0  0  0  0  0  0
  -21.9438  -39.3594   -5.3541 C   0  0  0  0  0  0  0  0  0  0  0  0
  -23.3288  -39.8566   -5.1460 C   0  0  0  0  0  0  0  0  0  0  0  0
  -23.6504  -41.1672   -5.7837 C   0  0  0  0  0  0  0  0  0  0  0  0
  -22.7597  -42.3058   -5.3770 C   0  0  0  0  0  0  0  0  0  0  0  0
  -22.5204  -43.2399   -6.5743 C   0  0  0  0  0  0  0  0  0  0  0  0
  -21.6814  -44.3943   -6.2170 C   0  0  0  0  0  0  0  0  0  0  0  0
  -20.4270  -44.5615   -6.9456 C   0  0  0  0  0  0  0  0  0  0  0  0
  -20.4253  -45.3424   -7.9382 O   0  0  0  0  0  0  0  0  0  0  0  0
  -19.1784  -43.9383   -6.6678 N   0  0  0  0  0  0  0  0  0  0  0  0
  -17.8894  -44.5644   -6.8973 C   0  0  0  0  0  0  0  0  0  0  0  0
  -19.0839  -42.5897   -6.1178 C   0  0  1  0  0  0  0  0  0  0  0  0
  -18.9655  -42.6542   -4.5884 C   0  0  0  0  0  0  0  0  0  0  0  0
  -17.8982  -41.8411   -6.5797 C   0  0  0  0  0  0  0  0  0  0  0  0
  -16.7661  -42.2894   -6.2739 O   0  0  0  0  0  0  0  0  0  0  0  0
  -17.9281  -40.6517   -7.3432 N   0  0  0  0  0  0  0  0  0  0  0  0
  -18.7619  -40.4020   -8.4962 C   0  0  1  0  0  0  0  0  0  0  0  0
  -19.2965  -38.9976   -8.5781 C   0  0  0  0  0  0  0  0  0  0  0  0
  -17.8618  -40.7496   -9.7021 C   0  0  2  0  0  0  0  0  0  0  0  0
  -18.1036  -42.0758  -10.0700 O   0  0  0  0  0  0  0  0  0  0  0  0
  -16.4220  -40.6177   -9.3416 C   0  0  0  0  0  0  0  0  0  0  0  0
  -15.4927  -40.3742  -10.3703 N   0  0  0  0  0  0  0  0  0  0  0  0
  -14.2470  -39.7731  -10.0594 C   0  0  0  0  0  0  0  0  0  0  0  0
  -13.0650  -40.6771  -10.3746 C   0  0  0  0  0  0  0  0  0  0  0  0
  -14.1670  -39.2728   -8.6677 C   0  0  0  0  0  0  0  0  0  0  0  0
  -14.0968  -38.5962  -11.0151 C   0  0  0  0  0  0  0  0  0  0  0  0
  -14.0377  -37.2595  -10.7195 C   0  0  0  0  0  0  0  0  0  0  0  0
  -13.9024  -36.5674  -11.9321 C   0  0  0  0  0  0  0  0  0  0  0  0
  -13.8037  -35.0897  -12.0471 C   0  0  0  0  0  0  0  0  0  0  0  0
  -12.5059  -34.6350  -12.6754 C   0  0  0  0  0  0  0  0  0  0  0  0
  -11.4212  -34.9470  -11.6356 C   0  0  0  0  0  0  0  0  0  0  0  0
  -12.4742  -33.1598  -12.9252 C   0  0  0  0  0  0  0  0  0  0  0  0
  -12.1478  -35.3663  -13.9268 C   0  0  0  0  0  0  0  0  0  0  0  0
  -13.8868  -37.4725  -12.8543 O   0  0  0  0  0  0  0  0  0  0  0  0
  -13.9981  -38.6765  -12.3637 N   0  0  0  0  0  0  0  0  0  0  0  0
  2  1  1  1
  2  3  1  0
  3  4  1  0
  4  5  1  0
  5  6  1  0
  6  7  1  0
  7  8  1  0
  8  9  1  0
  9 10  1  0
 10 11  1  0
 11 12  2  0
 11 13  1  0
 13 14  1  0
 13 15  1  0
 15 16  1  1
 15 17  1  0
 17 18  2  0
 17 19  1  0
 19 20  1  0
 20 21  1  6
 20 22  1  0
 22 23  1  1
 22 24  1  0
 24 25  1  0
 25 26  1  0
 26 27  1  0
 26 28  1  0
 26 29  1  0
 29 30  1  0
 30 31  2  0
 31 32  1  0
 32 33  1  0
 33 34  1  0
 33 35  1  0
 33 36  1  0
 31 37  1  0
 37 38  1  0
 21  2  1  0
 38 29  2  0
M  END
$$$$
