
     RDKit          3D

 38 39  0  0  0  0  0  0  0  0999 V2000
  -20.1863  -37.1858   -5.4380 C   0  0  0  0  0  0  0  0  0  0  0  0
  -19.7987  -38.3381   -6.3399 C   0  0  2  0  0  0  0  0  0  0  0  0
  -20.9197  -39.2705   -6.5389 C   0  0  0  0  0  0  0  0  0  0  0  0
  -21.5164  -39.9182   -5.3571 C   0  0  0  0  0  0  0  0  0  0  0  0
  -21.8868  -41.3642   -5.7111 C   0  0  0  0  0  0  0  0  0  0  0  0
  -23.1699  -41.4832   -6.4515 C   0  0  0  0  0  0  0  0  0  0  0  0
  -23.0670  -41.4361   -7.9398 C   0  0  0  0  0  0  0  0  0  0  0  0
  -22.1664  -42.4736   -8.5463 C   0  0  0  0  0  0  0  0  0  0  0  0
  -21.4296  -41.8855   -9.7606 C   0  0  0  0  0  0  0  0  0  0  0  0
  -20.5602  -42.8763  -10.4139 C   0  0  0  0  0  0  0  0  0  0  0  0
  -19.1352  -42.5675  -10.4939 C   0  0  0  0  0  0  0  0  0  0  0  0
  -18.7082  -42.0428  -11.5604 O   0  0  0  0  0  0  0  0  0  0  0  0
  -18.1468  -42.7904   -9.4949 N   0  0  0  0  0  0  0  0  0  0  0  0
  -16.7644  -43.1270   -9.7810 C   0  0  0  0  0  0  0  0  0  0  0  0
  -18.4431  -42.6979   -8.0688 C   0  0  1  0  0  0  0  0  0  0  0  0
  -18.7807  -44.0882   -7.5121 C   0  0  0  0  0  0  0  0  0  0  0  0
  -17.3121  -42.2058   -7.2574 C   0  0  0  0  0  0  0  0  0  0  0  0
  -16.2669  -42.9005   -7.2262 O   0  0  0  0  0  0  0  0  0  0  0  0
  -17.3048  -41.0088   -6.5053 N   0  0  0  0  0  0  0  0  0  0  0  0
  -17.7827  -39.7207   -6.9520 C   0  0  1  0  0  0  0  0  0  0  0  0
  -18.4895  -38.9229   -5.8895 C   0  0  0  0  0  0  0  0  0  0  0  0
  -16.5179  -39.0017   -7.4700 C   0  0  2  0  0  0  0  0  0  0  0  0
  -16.9134  -37.8923   -8.2219 O   0  0  0  0  0  0  0  0  0  0  0  0
  -15.7202  -39.9035   -8.3479 C   0  0  0  0  0  0  0  0  0  0  0  0
  -14.3536  -39.6219   -8.5335 N   0  0  0  0  0  0  0  0  0  0  0  0
  -13.5898  -40.4198   -9.4223 C   0  0  0  0  0  0  0  0  0  0  0  0
  -13.8961  -41.9037   -9.2885 C   0  0  0  0  0  0  0  0  0  0  0  0
  -12.1322  -40.1753   -9.3266 C   0  0  0  0  0  0  0  0  0  0  0  0
  -14.0592  -40.0550  -10.8251 C   0  0  0  0  0  0  0  0  0  0  0  0
  -13.9395  -38.8574  -11.4800 C   0  0  0  0  0  0  0  0  0  0  0  0
  -14.5276  -39.0103  -12.7444 C   0  0  0  0  0  0  0  0  0  0  0  0
  -14.6060  -37.9362  -13.7675 C   0  0  0  0  0  0  0  0  0  0  0  0
  -13.2832  -37.2383  -13.9888 C   0  0  0  0  0  0  0  0  0  0  0  0
  -13.5348  -36.2463  -15.1324 C   0  0  0  0  0  0  0  0  0  0  0  0
  -12.2072  -38.1757  -14.4393 C   0  0  0  0  0  0  0  0  0  0  0  0
  -12.8071  -36.4517  -12.8126 C   0  0  0  0  0  0  0  0  0  0  0  0
  -14.9521  -40.2299  -12.7901 O   0  0  0  0  0  0  0  0  0  0  0  0
  -14.6997  -40.8802  -11.6873 N   0  0  0  0  0  0  0  0  0  0  0  0
  2  1  1  1
  2  3  1  0
  3  4  1  0
  4  5  1  0
  5  6  1  0
  6  7  1  0
  7  8  1  0
  8  9  1  0
  9 10  1  0
 10 11  1  0
 11 12  2  0
 11 13  1  0
 13 14  1  0
 13 15  1  0
 15 16  1  1
 15 17  1  0
 17 18  2  0
 17 19  1  0
 19 20  1  0
 20 21  1  1
 20 22  1  0
 22 23  1  6
 22 24  1  0
 24 25  1  0
 25 26  1  0
 26 27  1  0
 26 28  1  0
 26 29  1  0
 29 30  1  0
 30 31  2  0
 31 32  1  0
 32 33  1  0
 33 34  1  0
 33 35  1  0
 33 36  1  0
 31 37  1  0
 37 38  1  0
 21  2  1  0
 38 29  2  0
M  END
$$$$
