
     RDKit          3D

 38 39  0  0  0  0  0  0  0  0999 V2000
  -20.4987  -37.0165   -9.3818 C   0  0  0  0  0  0  0  0  0  0  0  0
  -20.0942  -38.4418   -9.0715 C   0  0  2  0  0  0  0  0  0  0  0  0
  -21.0538  -39.0916   -8.1646 C   0  0  0  0  0  0  0  0  0  0  0  0
  -21.2959  -38.4861   -6.8429 C   0  0  0  0  0  0  0  0  0  0  0  0
  -21.4702  -39.6017   -5.8043 C   0  0  0  0  0  0  0  0  0  0  0  0
  -22.8294  -40.2028   -5.8025 C   0  0  0  0  0  0  0  0  0  0  0  0
  -23.0182  -41.3828   -6.6968 C   0  0  0  0  0  0  0  0  0  0  0  0
  -22.0821  -42.5288   -6.4407 C   0  0  0  0  0  0  0  0  0  0  0  0
  -21.7003  -43.2029   -7.7685 C   0  0  0  0  0  0  0  0  0  0  0  0
  -20.8113  -44.3577   -7.5677 C   0  0  0  0  0  0  0  0  0  0  0  0
  -19.5023  -44.3153   -8.2135 C   0  0  0  0  0  0  0  0  0  0  0  0
  -19.3812  -44.8910   -9.3311 O   0  0  0  0  0  0  0  0  0  0  0  0
  -18.3201  -43.6906   -7.7268 N   0  0  0  0  0  0  0  0  0  0  0  0
  -16.9793  -44.1915   -7.9667 C   0  0  0  0  0  0  0  0  0  0  0  0
  -18.3540  -42.4689   -6.9292 C   0  0  1  0  0  0  0  0  0  0  0  0
  -18.3347  -42.8178   -5.4343 C   0  0  0  0  0  0  0  0  0  0  0  0
  -17.1931  -41.5835   -7.1485 C   0  0  0  0  0  0  0  0  0  0  0  0
  -16.0565  -42.0206   -6.8434 O   0  0  0  0  0  0  0  0  0  0  0  0
  -17.2518  -40.2735   -7.6767 N   0  0  0  0  0  0  0  0  0  0  0  0
  -18.0210  -39.8532   -8.8250 C   0  0  1  0  0  0  0  0  0  0  0  0
  -18.6424  -38.4896   -8.6854 C   0  0  0  0  0  0  0  0  0  0  0  0
  -17.0204  -39.9154   -9.9997 C   0  0  2  0  0  0  0  0  0  0  0  0
  -17.2751  -41.0728  -10.7401 O   0  0  0  0  0  0  0  0  0  0  0  0
  -15.6192  -39.9787   -9.4969 C   0  0  0  0  0  0  0  0  0  0  0  0
  -14.9674  -38.7735   -9.1745 N   0  0  0  0  0  0  0  0  0  0  0  0
  -13.6931  -38.4972   -9.7311 C   0  0  0  0  0  0  0  0  0  0  0  0
  -13.0505  -39.7233  -10.3615 C   0  0  0  0  0  0  0  0  0  0  0  0
  -12.7629  -37.8506   -8.7771 C   0  0  0  0  0  0  0  0  0  0  0  0
  -13.9395  -37.5491  -10.8979 C   0  0  0  0  0  0  0  0  0  0  0  0
  -13.0238  -36.8317  -11.6220 C   0  0  0  0  0  0  0  0  0  0  0  0
  -13.7322  -36.1010  -12.5875 C   0  0  0  0  0  0  0  0  0  0  0  0
  -13.1024  -35.1913  -13.5786 C   0  0  0  0  0  0  0  0  0  0  0  0
  -12.3471  -35.9322  -14.6587 C   0  0  0  0  0  0  0  0  0  0  0  0
  -11.7066  -34.8405  -15.5266 C   0  0  0  0  0  0  0  0  0  0  0  0
  -13.2487  -36.7346  -15.5433 C   0  0  0  0  0  0  0  0  0  0  0  0
  -11.2443  -36.7973  -14.1444 C   0  0  0  0  0  0  0  0  0  0  0  0
  -14.9774  -36.3971  -12.4095 O   0  0  0  0  0  0  0  0  0  0  0  0
  -15.1468  -37.2423  -11.4299 N   0  0  0  0  0  0  0  0  0  0  0  0
  2  1  1  1
  2  3  1  0
  3  4  1  0
  4  5  1  0
  5  6  1  0
  6  7  1  0
  7  8  1  0
  8  9  1  0
  9 10  1  0
 10 11  1  0
 11 12  2  0
 11 13  1  0
 13 14  1  0
 13 15  1  0
 15 16  1  1
 15 17  1  0
 17 18  2  0
 17 19  1  0
 19 20  1  0
 20 21  1  1
 20 22  1  0
 22 23  1  1
 22 24  1  0
 24 25  1  0
 25 26  1  0
 26 27  1  0
 26 28  1  0
 26 29  1  0
 29 30  1  0
 30 31  2  0
 31 32  1  0
 32 33  1  0
 33 34  1  0
 33 35  1  0
 33 36  1  0
 31 37  1  0
 37 38  1  0
 21  2  1  0
 38 29  2  0
M  END
$$$$
