
     RDKit          3D

 38 39  0  0  0  0  0  0  0  0999 V2000
  -20.0666  -36.9852   -5.9513 C   0  0  0  0  0  0  0  0  0  0  0  0
  -19.4444  -38.0845   -6.7854 C   0  0  2  0  0  0  0  0  0  0  0  0
  -20.4409  -39.0909   -7.1849 C   0  0  0  0  0  0  0  0  0  0  0  0
  -21.1802  -39.8082   -6.1308 C   0  0  0  0  0  0  0  0  0  0  0  0
  -21.3741  -41.2685   -6.5591 C   0  0  0  0  0  0  0  0  0  0  0  0
  -22.4989  -41.4627   -7.5109 C   0  0  0  0  0  0  0  0  0  0  0  0
  -22.1468  -41.3729   -8.9586 C   0  0  0  0  0  0  0  0  0  0  0  0
  -21.0799  -42.3274   -9.4121 C   0  0  0  0  0  0  0  0  0  0  0  0
  -20.1929  -41.6586  -10.4747 C   0  0  0  0  0  0  0  0  0  0  0  0
  -19.1521  -42.5677  -10.9792 C   0  0  0  0  0  0  0  0  0  0  0  0
  -17.7620  -42.1543  -10.8090 C   0  0  0  0  0  0  0  0  0  0  0  0
  -17.1998  -41.5748  -11.7802 O   0  0  0  0  0  0  0  0  0  0  0  0
  -16.9450  -42.3285   -9.6572 N   0  0  0  0  0  0  0  0  0  0  0  0
  -15.5126  -42.5568   -9.7045 C   0  0  0  0  0  0  0  0  0  0  0  0
  -17.4869  -42.2918   -8.3025 C   0  0  1  0  0  0  0  0  0  0  0  0
  -17.8085  -43.7159   -7.8276 C   0  0  0  0  0  0  0  0  0  0  0  0
  -16.5519  -41.7382   -7.3031 C   0  0  0  0  0  0  0  0  0  0  0  0
  -15.4780  -42.3557   -7.0998 O   0  0  0  0  0  0  0  0  0  0  0  0
  -16.7640  -40.5621   -6.5478 N   0  0  0  0  0  0  0  0  0  0  0  0
  -17.2546  -39.3019   -7.0561 C   0  0  1  0  0  0  0  0  0  0  0  0
  -18.1910  -38.5831   -6.1226 C   0  0  0  0  0  0  0  0  0  0  0  0
  -15.9780  -38.4807   -7.3405 C   0  0  2  0  0  0  0  0  0  0  0  0
  -16.3019  -37.4456   -8.2214 O   0  0  0  0  0  0  0  0  0  0  0  0
  -14.9344  -39.3313   -7.9791 C   0  0  0  0  0  0  0  0  0  0  0  0
  -13.5815  -39.0078   -7.7639 N   0  0  0  0  0  0  0  0  0  0  0  0
  -12.8370  -38.3901   -8.8003 C   0  0  0  0  0  0  0  0  0  0  0  0
  -11.4243  -38.9420   -8.9163 C   0  0  0  0  0  0  0  0  0  0  0  0
  -12.8159  -36.9121   -8.7080 C   0  0  0  0  0  0  0  0  0  0  0  0
  -13.5154  -38.7924  -10.1038 C   0  0  0  0  0  0  0  0  0  0  0  0
  -14.0440  -37.9834  -11.0752 C   0  0  0  0  0  0  0  0  0  0  0  0
  -14.5615  -38.8160  -12.0786 C   0  0  0  0  0  0  0  0  0  0  0  0
  -15.2251  -38.3265  -13.3141 C   0  0  0  0  0  0  0  0  0  0  0  0
  -14.2500  -38.0605  -14.4384 C   0  0  0  0  0  0  0  0  0  0  0  0
  -13.4055  -36.8683  -13.9686 C   0  0  0  0  0  0  0  0  0  0  0  0
  -14.9322  -37.6528  -15.7064 C   0  0  0  0  0  0  0  0  0  0  0  0
  -13.3133  -39.1909  -14.7105 C   0  0  0  0  0  0  0  0  0  0  0  0
  -14.3323  -40.0255  -11.6853 O   0  0  0  0  0  0  0  0  0  0  0  0
  -13.7211  -40.0605  -10.5330 N   0  0  0  0  0  0  0  0  0  0  0  0
  2  1  1  1
  2  3  1  0
  3  4  1  0
  4  5  1  0
  5  6  1  0
  6  7  1  0
  7  8  1  0
  8  9  1  0
  9 10  1  0
 10 11  1  0
 11 12  2  0
 11 13  1  0
 13 14  1  0
 13 15  1  0
 15 16  1  1
 15 17  1  0
 17 18  2  0
 17 19  1  0
 19 20  1  0
 20 21  1  1
 20 22  1  0
 22 23  1  6
 22 24  1  0
 24 25  1  0
 25 26  1  0
 26 27  1  0
 26 28  1  0
 26 29  1  0
 29 30  1  0
 30 31  2  0
 31 32  1  0
 32 33  1  0
 33 34  1  0
 33 35  1  0
 33 36  1  0
 31 37  1  0
 37 38  1  0
 21  2  1  0
 38 29  2  0
M  END
$$$$
