
     RDKit          3D

 38 39  0  0  0  0  0  0  0  0999 V2000
  -20.6470  -37.3391   -8.4350 C   0  0  0  0  0  0  0  0  0  0  0  0
  -20.4503  -38.8162   -8.1689 C   0  0  2  0  0  0  0  0  0  0  0  0
  -21.4181  -39.3221   -7.1825 C   0  0  0  0  0  0  0  0  0  0  0  0
  -21.4429  -38.7110   -5.8416 C   0  0  0  0  0  0  0  0  0  0  0  0
  -21.7016  -39.8041   -4.7968 C   0  0  0  0  0  0  0  0  0  0  0  0
  -23.1340  -40.1813   -4.6756 C   0  0  0  0  0  0  0  0  0  0  0  0
  -23.5873  -41.2991   -5.5548 C   0  0  0  0  0  0  0  0  0  0  0  0
  -22.8280  -42.5840   -5.3892 C   0  0  0  0  0  0  0  0  0  0  0  0
  -22.6773  -43.2849   -6.7491 C   0  0  0  0  0  0  0  0  0  0  0  0
  -21.9705  -44.5701   -6.6343 C   0  0  0  0  0  0  0  0  0  0  0  0
  -20.7335  -44.7242   -7.3949 C   0  0  0  0  0  0  0  0  0  0  0  0
  -20.8049  -45.2906   -8.5214 O   0  0  0  0  0  0  0  0  0  0  0  0
  -19.4284  -44.3050   -7.0135 N   0  0  0  0  0  0  0  0  0  0  0  0
  -18.2114  -45.0081   -7.3752 C   0  0  0  0  0  0  0  0  0  0  0  0
  -19.1959  -43.1087   -6.2104 C   0  0  1  0  0  0  0  0  0  0  0  0
  -19.1014  -43.4845   -4.7249 C   0  0  0  0  0  0  0  0  0  0  0  0
  -17.9321  -42.4153   -6.5289 C   0  0  0  0  0  0  0  0  0  0  0  0
  -16.8578  -43.0334   -6.3293 O   0  0  0  0  0  0  0  0  0  0  0  0
  -17.8264  -41.1028   -7.0437 N   0  0  0  0  0  0  0  0  0  0  0  0
  -18.6164  -40.5438   -8.1163 C   0  0  1  0  0  0  0  0  0  0  0  0
  -18.9967  -39.1017   -7.9151 C   0  0  0  0  0  0  0  0  0  0  0  0
  -17.7459  -40.7422   -9.3764 C   0  0  2  0  0  0  0  0  0  0  0  0
  -17.7948  -42.0896   -9.7432 O   0  0  0  0  0  0  0  0  0  0  0  0
  -16.3267  -40.3823   -9.0998 C   0  0  0  0  0  0  0  0  0  0  0  0
  -15.7022  -39.4314   -9.9287 N   0  0  0  0  0  0  0  0  0  0  0  0
  -14.4036  -39.6907  -10.4350 C   0  0  0  0  0  0  0  0  0  0  0  0
  -14.4280  -40.2831  -11.8358 C   0  0  0  0  0  0  0  0  0  0  0  0
  -13.5749  -40.5201   -9.5301 C   0  0  0  0  0  0  0  0  0  0  0  0
  -13.7379  -38.3308  -10.6039 C   0  0  0  0  0  0  0  0  0  0  0  0
  -12.8117  -37.9445  -11.5369 C   0  0  0  0  0  0  0  0  0  0  0  0
  -12.4966  -36.6012  -11.2840 C   0  0  0  0  0  0  0  0  0  0  0  0
  -11.5255  -35.8046  -12.0769 C   0  0  0  0  0  0  0  0  0  0  0  0
  -12.1735  -35.0588  -13.2214 C   0  0  0  0  0  0  0  0  0  0  0  0
  -13.1356  -34.0615  -12.5619 C   0  0  0  0  0  0  0  0  0  0  0  0
  -12.9903  -35.9528  -14.1006 C   0  0  0  0  0  0  0  0  0  0  0  0
  -11.2158  -34.2713  -14.0531 C   0  0  0  0  0  0  0  0  0  0  0  0
  -13.2111  -36.2582  -10.2632 O   0  0  0  0  0  0  0  0  0  0  0  0
  -13.9541  -37.2398   -9.8308 N   0  0  0  0  0  0  0  0  0  0  0  0
  2  1  1  1
  2  3  1  0
  3  4  1  0
  4  5  1  0
  5  6  1  0
  6  7  1  0
  7  8  1  0
  8  9  1  0
  9 10  1  0
 10 11  1  0
 11 12  2  0
 11 13  1  0
 13 14  1  0
 13 15  1  0
 15 16  1  1
 15 17  1  0
 17 18  2  0
 17 19  1  0
 19 20  1  0
 20 21  1  1
 20 22  1  0
 22 23  1  1
 22 24  1  0
 24 25  1  0
 25 26  1  0
 26 27  1  0
 26 28  1  0
 26 29  1  0
 29 30  1  0
 30 31  2  0
 31 32  1  0
 32 33  1  0
 33 34  1  0
 33 35  1  0
 33 36  1  0
 31 37  1  0
 37 38  1  0
 21  2  1  0
 38 29  2  0
M  END
$$$$
