
     RDKit          3D

 38 39  0  0  0  0  0  0  0  0999 V2000
  -21.5598  -37.3836   -9.1743 C   0  0  0  0  0  0  0  0  0  0  0  0
  -21.1470  -38.7999   -8.8351 C   0  0  2  0  0  0  0  0  0  0  0  0
  -21.8709  -39.3077   -7.6588 C   0  0  0  0  0  0  0  0  0  0  0  0
  -21.7462  -38.5773   -6.3847 C   0  0  0  0  0  0  0  0  0  0  0  0
  -21.6962  -39.5868   -5.2307 C   0  0  0  0  0  0  0  0  0  0  0  0
  -23.0335  -40.0982   -4.8321 C   0  0  0  0  0  0  0  0  0  0  0  0
  -23.4894  -41.3360   -5.5305 C   0  0  0  0  0  0  0  0  0  0  0  0
  -22.5654  -42.5129   -5.4032 C   0  0  0  0  0  0  0  0  0  0  0  0
  -22.5594  -43.3208   -6.7111 C   0  0  0  0  0  0  0  0  0  0  0  0
  -21.6952  -44.5082   -6.6244 C   0  0  0  0  0  0  0  0  0  0  0  0
  -20.5917  -44.6042   -7.5759 C   0  0  0  0  0  0  0  0  0  0  0  0
  -20.7805  -45.2799   -8.6261 O   0  0  0  0  0  0  0  0  0  0  0  0
  -19.3009  -44.0165   -7.4622 N   0  0  0  0  0  0  0  0  0  0  0  0
  -18.0855  -44.6200   -7.9769 C   0  0  0  0  0  0  0  0  0  0  0  0
  -19.0831  -42.7313   -6.8057 C   0  0  1  0  0  0  0  0  0  0  0  0
  -18.6998  -42.9518   -5.3354 C   0  0  0  0  0  0  0  0  0  0  0  0
  -17.9812  -41.9433   -7.3925 C   0  0  0  0  0  0  0  0  0  0  0  0
  -16.8227  -42.4239   -7.3377 O   0  0  0  0  0  0  0  0  0  0  0  0
  -18.1194  -40.6821   -8.0162 N   0  0  0  0  0  0  0  0  0  0  0  0
  -19.1369  -40.3136   -8.9732 C   0  0  1  0  0  0  0  0  0  0  0  0
  -19.6479  -38.9064   -8.8189 C   0  0  0  0  0  0  0  0  0  0  0  0
  -18.4696  -40.5393  -10.3476 C   0  0  2  0  0  0  0  0  0  0  0  0
  -18.8736  -41.7833  -10.8393 O   0  0  0  0  0  0  0  0  0  0  0  0
  -16.9851  -40.5449  -10.2191 C   0  0  0  0  0  0  0  0  0  0  0  0
  -16.3972  -39.7709   -9.2010 N   0  0  0  0  0  0  0  0  0  0  0  0
  -15.1110  -39.2100   -9.4035 C   0  0  0  0  0  0  0  0  0  0  0  0
  -14.1545  -40.1709  -10.0931 C   0  0  0  0  0  0  0  0  0  0  0  0
  -14.5055  -38.6664   -8.1661 C   0  0  0  0  0  0  0  0  0  0  0  0
  -15.2993  -38.0732  -10.4001 C   0  0  0  0  0  0  0  0  0  0  0  0
  -14.3429  -37.3840  -11.0985 C   0  0  0  0  0  0  0  0  0  0  0  0
  -15.0043  -36.4287  -11.8845 C   0  0  0  0  0  0  0  0  0  0  0  0
  -14.3210  -35.4729  -12.7934 C   0  0  0  0  0  0  0  0  0  0  0  0
  -12.8370  -35.7355  -12.9136 C   0  0  0  0  0  0  0  0  0  0  0  0
  -12.3128  -34.6636  -13.8787 C   0  0  0  0  0  0  0  0  0  0  0  0
  -12.5368  -37.0695  -13.5216 C   0  0  0  0  0  0  0  0  0  0  0  0
  -12.0877  -35.5856  -11.6309 C   0  0  0  0  0  0  0  0  0  0  0  0
  -16.2635  -36.5791  -11.6360 O   0  0  0  0  0  0  0  0  0  0  0  0
  -16.4839  -37.5315  -10.7716 N   0  0  0  0  0  0  0  0  0  0  0  0
  2  1  1  1
  2  3  1  0
  3  4  1  0
  4  5  1  0
  5  6  1  0
  6  7  1  0
  7  8  1  0
  8  9  1  0
  9 10  1  0
 10 11  1  0
 11 12  2  0
 11 13  1  0
 13 14  1  0
 13 15  1  0
 15 16  1  1
 15 17  1  0
 17 18  2  0
 17 19  1  0
 19 20  1  0
 20 21  1  1
 20 22  1  0
 22 23  1  1
 22 24  1  0
 24 25  1  0
 25 26  1  0
 26 27  1  0
 26 28  1  0
 26 29  1  0
 29 30  1  0
 30 31  2  0
 31 32  1  0
 32 33  1  0
 33 34  1  0
 33 35  1  0
 33 36  1  0
 31 37  1  0
 37 38  1  0
 21  2  1  0
 38 29  2  0
M  END
$$$$
