
     RDKit          3D

 38 39  0  0  0  0  0  0  0  0999 V2000
  -20.0725  -36.5992   -7.1798 C   0  0  0  0  0  0  0  0  0  0  0  0
  -19.4245  -37.8122   -7.8122 C   0  0  2  0  0  0  0  0  0  0  0  0
  -20.3178  -38.9812   -7.7809 C   0  0  0  0  0  0  0  0  0  0  0  0
  -20.7997  -39.4655   -6.4749 C   0  0  0  0  0  0  0  0  0  0  0  0
  -20.8470  -40.9987   -6.4947 C   0  0  0  0  0  0  0  0  0  0  0  0
  -22.0537  -41.5459   -7.1678 C   0  0  0  0  0  0  0  0  0  0  0  0
  -21.9189  -41.8055   -8.6314 C   0  0  0  0  0  0  0  0  0  0  0  0
  -20.8026  -42.7359   -9.0102 C   0  0  0  0  0  0  0  0  0  0  0  0
  -20.1703  -42.2858  -10.3372 C   0  0  0  0  0  0  0  0  0  0  0  0
  -19.0929  -43.1886  -10.7715 C   0  0  0  0  0  0  0  0  0  0  0  0
  -17.7631  -42.6104  -10.9430 C   0  0  0  0  0  0  0  0  0  0  0  0
  -17.4245  -42.2539  -12.1063 O   0  0  0  0  0  0  0  0  0  0  0  0
  -16.7800  -42.3944   -9.9372 N   0  0  0  0  0  0  0  0  0  0  0  0
  -15.3499  -42.4851  -10.1667 C   0  0  0  0  0  0  0  0  0  0  0  0
  -17.1313  -42.0565   -8.5615 C   0  0  1  0  0  0  0  0  0  0  0  0
  -17.1852  -43.3303   -7.7061 C   0  0  0  0  0  0  0  0  0  0  0  0
  -16.1537  -41.1706   -7.8989 C   0  0  0  0  0  0  0  0  0  0  0  0
  -14.9872  -41.6042   -7.7339 O   0  0  0  0  0  0  0  0  0  0  0  0
  -16.4207  -39.8641   -7.4293 N   0  0  0  0  0  0  0  0  0  0  0  0
  -17.1455  -38.8364   -8.1404 C   0  0  1  0  0  0  0  0  0  0  0  0
  -18.0355  -37.9933   -7.2675 C   0  0  0  0  0  0  0  0  0  0  0  0
  -16.0455  -37.9973   -8.8266 C   0  0  2  0  0  0  0  0  0  0  0  0
  -16.6583  -37.0348   -9.6331 O   0  0  0  0  0  0  0  0  0  0  0  0
  -15.1878  -38.8566   -9.6906 C   0  0  0  0  0  0  0  0  0  0  0  0
  -13.8222  -38.9771   -9.3716 N   0  0  0  0  0  0  0  0  0  0  0  0
  -12.8661  -38.2183  -10.0927 C   0  0  0  0  0  0  0  0  0  0  0  0
  -11.4715  -38.3096   -9.4923 C   0  0  0  0  0  0  0  0  0  0  0  0
  -13.2620  -36.8042  -10.2848 C   0  0  0  0  0  0  0  0  0  0  0  0
  -12.7418  -38.8845  -11.4572 C   0  0  0  0  0  0  0  0  0  0  0  0
  -11.9662  -38.5087  -12.5224 C   0  0  0  0  0  0  0  0  0  0  0  0
  -12.1960  -39.4305  -13.5545 C   0  0  0  0  0  0  0  0  0  0  0  0
  -11.5431  -39.3758  -14.8877 C   0  0  0  0  0  0  0  0  0  0  0  0
  -11.9963  -40.4853  -15.8094 C   0  0  0  0  0  0  0  0  0  0  0  0
  -12.9335  -41.3575  -14.9632 C   0  0  0  0  0  0  0  0  0  0  0  0
  -10.8652  -41.3541  -16.2624 C   0  0  0  0  0  0  0  0  0  0  0  0
  -12.7744  -40.0124  -16.9926 C   0  0  0  0  0  0  0  0  0  0  0  0
  -13.0549  -40.2754  -13.0871 O   0  0  0  0  0  0  0  0  0  0  0  0
  -13.4036  -39.9951  -11.8614 N   0  0  0  0  0  0  0  0  0  0  0  0
  2  1  1  1
  2  3  1  0
  3  4  1  0
  4  5  1  0
  5  6  1  0
  6  7  1  0
  7  8  1  0
  8  9  1  0
  9 10  1  0
 10 11  1  0
 11 12  2  0
 11 13  1  0
 13 14  1  0
 13 15  1  0
 15 16  1  1
 15 17  1  0
 17 18  2  0
 17 19  1  0
 19 20  1  0
 20 21  1  1
 20 22  1  0
 22 23  1  6
 22 24  1  0
 24 25  1  0
 25 26  1  0
 26 27  1  0
 26 28  1  0
 26 29  1  0
 29 30  1  0
 30 31  2  0
 31 32  1  0
 32 33  1  0
 33 34  1  0
 33 35  1  0
 33 36  1  0
 31 37  1  0
 37 38  1  0
 21  2  1  0
 38 29  2  0
M  END
$$$$
