
     RDKit          3D

 40 43  0  0  0  0  0  0  0  0999 V2000
  -14.3752  -33.6824  -12.2987 C   0  0  0  0  0  0  0  0  0  0  0  0
  -14.1345  -35.0238  -13.0050 C   0  0  0  0  0  0  0  0  0  0  0  0
  -12.6143  -35.1889  -13.0384 C   0  0  0  0  0  0  0  0  0  0  0  0
  -14.7371  -36.0602  -12.1292 C   0  0  0  0  0  0  0  0  0  0  0  0
  -16.1071  -36.0890  -11.9438 C   0  0  0  0  0  0  0  0  0  0  0  0
  -16.6852  -37.0386  -11.1387 C   0  0  0  0  0  0  0  0  0  0  0  0
  -15.9111  -37.9823  -10.4988 C   0  0  0  0  0  0  0  0  0  0  0  0
  -14.5631  -37.9795  -10.6612 C   0  0  0  0  0  0  0  0  0  0  0  0
  -13.9922  -37.0173  -11.4756 C   0  0  0  0  0  0  0  0  0  0  0  0
  -13.6204  -38.9659  -10.0223 C   0  0  0  0  0  0  0  0  0  0  0  0
  -13.8881  -40.2795  -10.7348 C   0  0  0  0  0  0  0  0  0  0  0  0
  -12.2301  -38.4911  -10.3407 C   0  0  0  0  0  0  0  0  0  0  0  0
  -13.8266  -39.0588   -8.6150 N   0  0  0  0  0  0  0  0  0  0  0  0
  -14.8685  -40.0787   -8.3865 C   0  0  0  0  0  0  0  0  0  0  0  0
  -15.8829  -39.6029   -7.4159 C   0  0  1  0  0  0  0  0  0  0  0  0
  -15.7334  -38.2680   -7.1199 O   0  0  0  0  0  0  0  0  0  0  0  0
  -17.3335  -39.9425   -7.8450 C   0  0  2  0  0  0  0  0  0  0  0  0
  -18.2054  -39.3716   -6.8568 C   0  0  0  0  0  0  0  0  0  0  0  0
  -19.6686  -39.2643   -6.8927 C   0  0  0  0  0  0  0  0  0  0  0  0
  -20.0763  -38.2087   -6.0217 C   0  0  0  0  0  0  0  0  0  0  0  0
  -21.3666  -37.8852   -5.7429 C   0  0  0  0  0  0  0  0  0  0  0  0
  -21.7079  -36.8679   -4.9072 F   0  0  0  0  0  0  0  0  0  0  0  0
  -22.3098  -38.6587   -6.3659 C   0  0  0  0  0  0  0  0  0  0  0  0
  -23.6822  -38.3218   -6.0791 N   0  0  0  0  0  0  0  0  0  0  0  0
  -21.9741  -39.7235   -7.2429 C   0  0  0  0  0  0  0  0  0  0  0  0
  -23.2193  -40.4318   -7.6797 C   0  0  0  0  0  0  0  0  0  0  0  0
  -23.3651  -41.8425   -7.1525 C   0  0  0  0  0  0  0  0  0  0  0  0
  -23.7750  -41.9656   -5.7377 C   0  0  0  0  0  0  0  0  0  0  0  0
  -22.6829  -42.0319   -4.7282 C   0  0  0  0  0  0  0  0  0  0  0  0
  -21.8318  -43.2150   -4.8313 N   0  0  0  0  0  0  0  0  0  0  0  0
  -20.7338  -43.4717   -5.7160 C   0  0  0  0  0  0  0  0  0  0  0  0
  -20.9130  -44.7510   -6.3081 C   0  0  0  0  0  0  0  0  0  0  0  0
  -20.0781  -45.2623   -7.2580 C   0  0  0  0  0  0  0  0  0  0  0  0
  -19.0378  -44.4523   -7.6155 C   0  0  0  0  0  0  0  0  0  0  0  0
  -18.7980  -43.1600   -7.0645 C   0  0  0  0  0  0  0  0  0  0  0  0
  -19.6692  -42.6920   -6.0998 C   0  0  0  0  0  0  0  0  0  0  0  0
  -17.6520  -42.5311   -7.7384 C   0  0  0  0  0  0  0  0  0  0  0  0
  -16.5867  -43.3391   -7.9091 O   0  0  0  0  0  0  0  0  0  0  0  0
  -17.3423  -41.2838   -8.2787 N   0  0  0  0  0  0  0  0  0  0  0  0
  -20.6603  -40.0151   -7.5024 C   0  0  0  0  0  0  0  0  0  0  0  0
  1  2  1  0
  2  3  1  0
  2  4  1  0
  4  5  2  0
  5  6  1  0
  6  7  2  0
  7  8  1  0
  8  9  2  0
  8 10  1  0
 10 11  1  0
 10 12  1  0
 10 13  1  0
 13 14  1  0
 14 15  1  0
 15 16  1  6
 15 17  1  0
 17 18  1  1
 18 19  1  0
 19 20  1  0
 20 21  2  0
 21 22  1  0
 21 23  1  0
 23 24  1  0
 23 25  2  0
 25 26  1  0
 26 27  1  0
 27 28  1  0
 28 29  1  0
 29 30  1  0
 30 31  1  0
 31 32  1  0
 32 33  2  0
 33 34  1  0
 34 35  2  0
 35 36  1  0
 35 37  1  0
 37 38  2  0
 37 39  1  0
 25 40  1  0
  9  4  1  0
 36 31  2  0
 39 17  1  0
 40 19  2  0
M  END
$$$$
