
     RDKit          3D

 40 43  0  0  0  0  0  0  0  0999 V2000
  -15.1094  -43.4967  -11.3118 C   0  0  0  0  0  0  0  0  0  0  0  0
  -15.5966  -42.5922  -12.4524 C   0  0  0  0  0  0  0  0  0  0  0  0
  -16.9846  -42.1178  -12.0191 C   0  0  0  0  0  0  0  0  0  0  0  0
  -14.6579  -41.4426  -12.4911 C   0  0  0  0  0  0  0  0  0  0  0  0
  -13.6177  -41.4373  -13.4023 C   0  0  0  0  0  0  0  0  0  0  0  0
  -12.7386  -40.3845  -13.4554 C   0  0  0  0  0  0  0  0  0  0  0  0
  -12.8751  -39.3117  -12.6012 C   0  0  0  0  0  0  0  0  0  0  0  0
  -13.8864  -39.2883  -11.6955 C   0  0  0  0  0  0  0  0  0  0  0  0
  -14.7664  -40.3554  -11.6519 C   0  0  0  0  0  0  0  0  0  0  0  0
  -14.1397  -38.1669  -10.7218 C   0  0  0  0  0  0  0  0  0  0  0  0
  -12.8280  -37.4054  -10.6538 C   0  0  0  0  0  0  0  0  0  0  0  0
  -15.1983  -37.2981  -11.3417 C   0  0  0  0  0  0  0  0  0  0  0  0
  -14.5512  -38.6559   -9.4478 N   0  0  0  0  0  0  0  0  0  0  0  0
  -15.8801  -38.0817   -9.1611 C   0  0  0  0  0  0  0  0  0  0  0  0
  -16.4624  -38.6634   -7.9282 C   0  0  1  0  0  0  0  0  0  0  0  0
  -16.3920  -37.7980   -6.8615 O   0  0  0  0  0  0  0  0  0  0  0  0
  -17.8987  -39.2080   -8.1389 C   0  0  2  0  0  0  0  0  0  0  0  0
  -18.5575  -39.1515   -6.8641 C   0  0  0  0  0  0  0  0  0  0  0  0
  -19.9745  -39.3893   -6.5650 C   0  0  0  0  0  0  0  0  0  0  0  0
  -20.3033  -38.7385   -5.3371 C   0  0  0  0  0  0  0  0  0  0  0  0
  -21.5078  -38.8191   -4.7126 C   0  0  0  0  0  0  0  0  0  0  0  0
  -21.7767  -38.1787   -3.5433 F   0  0  0  0  0  0  0  0  0  0  0  0
  -22.4424  -39.5951   -5.3455 C   0  0  0  0  0  0  0  0  0  0  0  0
  -23.7250  -39.6850   -4.6926 N   0  0  0  0  0  0  0  0  0  0  0  0
  -22.1820  -40.2699   -6.5671 C   0  0  0  0  0  0  0  0  0  0  0  0
  -23.3646  -41.1074   -6.9453 C   0  0  0  0  0  0  0  0  0  0  0  0
  -23.1309  -42.6010   -6.8816 C   0  0  0  0  0  0  0  0  0  0  0  0
  -23.1234  -43.1979   -5.5293 C   0  0  0  0  0  0  0  0  0  0  0  0
  -21.8065  -43.2747   -4.8394 C   0  0  0  0  0  0  0  0  0  0  0  0
  -20.8311  -44.1477   -5.4883 N   0  0  0  0  0  0  0  0  0  0  0  0
  -19.9816  -43.8858   -6.6125 C   0  0  0  0  0  0  0  0  0  0  0  0
  -20.0992  -44.9604   -7.5349 C   0  0  0  0  0  0  0  0  0  0  0  0
  -19.4750  -44.9806   -8.7476 C   0  0  0  0  0  0  0  0  0  0  0  0
  -18.7152  -43.8809   -9.0296 C   0  0  0  0  0  0  0  0  0  0  0  0
  -18.5531  -42.7686   -8.1534 C   0  0  0  0  0  0  0  0  0  0  0  0
  -19.2007  -42.8014   -6.9335 C   0  0  0  0  0  0  0  0  0  0  0  0
  -17.7474  -41.7266   -8.8077 C   0  0  0  0  0  0  0  0  0  0  0  0
  -16.6482  -42.1807   -9.4422 O   0  0  0  0  0  0  0  0  0  0  0  0
  -17.8021  -40.3431   -8.9694 N   0  0  0  0  0  0  0  0  0  0  0  0
  -20.9553  -40.1592   -7.1683 C   0  0  0  0  0  0  0  0  0  0  0  0
  1  2  1  0
  2  3  1  0
  2  4  1  0
  4  5  2  0
  5  6  1  0
  6  7  2  0
  7  8  1  0
  8  9  2  0
  8 10  1  0
 10 11  1  0
 10 12  1  0
 10 13  1  0
 13 14  1  0
 14 15  1  0
 15 16  1  1
 15 17  1  0
 17 18  1  1
 18 19  1  0
 19 20  1  0
 20 21  2  0
 21 22  1  0
 21 23  1  0
 23 24  1  0
 23 25  2  0
 25 26  1  0
 26 27  1  0
 27 28  1  0
 28 29  1  0
 29 30  1  0
 30 31  1  0
 31 32  1  0
 32 33  2  0
 33 34  1  0
 34 35  2  0
 35 36  1  0
 35 37  1  0
 37 38  2  0
 37 39  1  0
 25 40  1  0
  9  4  1  0
 36 31  2  0
 39 17  1  0
 40 19  2  0
M  END
$$$$
