
     RDKit          3D

 40 43  0  0  0  0  0  0  0  0999 V2000
  -20.7869  -37.3456   -9.5162 C   0  0  0  0  0  0  0  0  0  0  0  0
  -20.3298  -36.3694  -10.6092 C   0  0  0  0  0  0  0  0  0  0  0  0
  -19.9984  -35.0717   -9.8706 C   0  0  0  0  0  0  0  0  0  0  0  0
  -19.0929  -36.9532  -11.1866 C   0  0  0  0  0  0  0  0  0  0  0  0
  -19.0556  -37.2920  -12.5268 C   0  0  0  0  0  0  0  0  0  0  0  0
  -17.9224  -37.8327  -13.0812 C   0  0  0  0  0  0  0  0  0  0  0  0
  -16.7989  -38.0488  -12.3129 C   0  0  0  0  0  0  0  0  0  0  0  0
  -16.8051  -37.7265  -10.9939 C   0  0  0  0  0  0  0  0  0  0  0  0
  -17.9535  -37.1818  -10.4466 C   0  0  0  0  0  0  0  0  0  0  0  0
  -15.6356  -37.9074  -10.0615 C   0  0  0  0  0  0  0  0  0  0  0  0
  -14.9275  -39.1540  -10.5609 C   0  0  0  0  0  0  0  0  0  0  0  0
  -14.7491  -36.7090  -10.2559 C   0  0  0  0  0  0  0  0  0  0  0  0
  -16.0550  -38.0271   -8.7045 N   0  0  0  0  0  0  0  0  0  0  0  0
  -15.4151  -39.2348   -8.1481 C   0  0  0  0  0  0  0  0  0  0  0  0
  -16.2140  -39.8026   -7.0359 C   0  0  1  0  0  0  0  0  0  0  0  0
  -16.1186  -39.0486   -5.8895 O   0  0  0  0  0  0  0  0  0  0  0  0
  -17.6887  -40.0736   -7.4303 C   0  0  2  0  0  0  0  0  0  0  0  0
  -18.4513  -40.0817   -6.2133 C   0  0  0  0  0  0  0  0  0  0  0  0
  -19.9101  -40.1240   -6.0583 C   0  0  0  0  0  0  0  0  0  0  0  0
  -20.2540  -39.5985   -4.7758 C   0  0  0  0  0  0  0  0  0  0  0  0
  -21.5115  -39.5651   -4.2609 C   0  0  0  0  0  0  0  0  0  0  0  0
  -21.7925  -39.0516   -3.0333 F   0  0  0  0  0  0  0  0  0  0  0  0
  -22.4867  -40.0874   -5.0686 C   0  0  0  0  0  0  0  0  0  0  0  0
  -23.8251  -40.0543   -4.5328 N   0  0  0  0  0  0  0  0  0  0  0  0
  -22.2142  -40.6262   -6.3535 C   0  0  0  0  0  0  0  0  0  0  0  0
  -23.4673  -41.2024   -6.9374 C   0  0  0  0  0  0  0  0  0  0  0  0
  -23.4679  -42.7090   -7.0770 C   0  0  0  0  0  0  0  0  0  0  0  0
  -23.6805  -43.4745   -5.8304 C   0  0  0  0  0  0  0  0  0  0  0  0
  -22.4628  -43.8556   -5.0636 C   0  0  0  0  0  0  0  0  0  0  0  0
  -21.5717  -44.7808   -5.7598 N   0  0  0  0  0  0  0  0  0  0  0  0
  -20.5882  -44.5125   -6.7672 C   0  0  0  0  0  0  0  0  0  0  0  0
  -20.7765  -45.4207   -7.8437 C   0  0  0  0  0  0  0  0  0  0  0  0
  -20.0486  -45.3798   -8.9967 C   0  0  0  0  0  0  0  0  0  0  0  0
  -19.1085  -44.3904   -9.0567 C   0  0  0  0  0  0  0  0  0  0  0  0
  -18.8663  -43.4464   -8.0168 C   0  0  0  0  0  0  0  0  0  0  0  0
  -19.6259  -43.5363   -6.8664 C   0  0  0  0  0  0  0  0  0  0  0  0
  -17.8539  -42.4711   -8.4492 C   0  0  0  0  0  0  0  0  0  0  0  0
  -16.7795  -43.0087   -9.0604 O   0  0  0  0  0  0  0  0  0  0  0  0
  -17.6842  -41.0880   -8.4093 N   0  0  0  0  0  0  0  0  0  0  0  0
  -20.9327  -40.6369   -6.8393 C   0  0  0  0  0  0  0  0  0  0  0  0
  1  2  1  0
  2  3  1  0
  2  4  1  0
  4  5  2  0
  5  6  1  0
  6  7  2  0
  7  8  1  0
  8  9  2  0
  8 10  1  0
 10 11  1  0
 10 12  1  0
 10 13  1  0
 13 14  1  0
 14 15  1  0
 15 16  1  1
 15 17  1  0
 17 18  1  1
 18 19  1  0
 19 20  1  0
 20 21  2  0
 21 22  1  0
 21 23  1  0
 23 24  1  0
 23 25  2  0
 25 26  1  0
 26 27  1  0
 27 28  1  0
 28 29  1  0
 29 30  1  0
 30 31  1  0
 31 32  1  0
 32 33  2  0
 33 34  1  0
 34 35  2  0
 35 36  1  0
 35 37  1  0
 37 38  2  0
 37 39  1  0
 25 40  1  0
  9  4  1  0
 36 31  2  0
 39 17  1  0
 40 19  2  0
M  END
$$$$
