
     RDKit          3D

 40 43  0  0  0  0  0  0  0  0999 V2000
  -24.7662  -40.2536   -7.6308 C   0  0  0  0  0  0  0  0  0  0  0  0
  -24.1395  -41.6509   -7.7365 C   0  0  0  0  0  0  0  0  0  0  0  0
  -23.3375  -41.6299   -9.0386 C   0  0  0  0  0  0  0  0  0  0  0  0
  -23.2199  -41.7745   -6.5775 C   0  0  0  0  0  0  0  0  0  0  0  0
  -23.6211  -42.4768   -5.4559 C   0  0  0  0  0  0  0  0  0  0  0  0
  -22.7867  -42.6037   -4.3734 C   0  0  0  0  0  0  0  0  0  0  0  0
  -21.5322  -42.0334   -4.3830 C   0  0  0  0  0  0  0  0  0  0  0  0
  -21.1100  -41.3377   -5.4699 C   0  0  0  0  0  0  0  0  0  0  0  0
  -21.9602  -41.2169   -6.5550 C   0  0  0  0  0  0  0  0  0  0  0  0
  -19.7594  -40.6824   -5.5970 C   0  0  0  0  0  0  0  0  0  0  0  0
  -19.1753  -40.7170   -4.1960 C   0  0  0  0  0  0  0  0  0  0  0  0
  -18.9461  -41.5604   -6.5067 C   0  0  0  0  0  0  0  0  0  0  0  0
  -19.8612  -39.3569   -6.1111 N   0  0  0  0  0  0  0  0  0  0  0  0
  -18.6143  -38.6492   -5.7611 C   0  0  0  0  0  0  0  0  0  0  0  0
  -18.0777  -37.8995   -6.9219 C   0  0  1  0  0  0  0  0  0  0  0  0
  -17.8360  -36.5793   -6.6215 O   0  0  0  0  0  0  0  0  0  0  0  0
  -16.8426  -38.5837   -7.5624 C   0  0  2  0  0  0  0  0  0  0  0  0
  -16.5938  -37.9137   -8.8081 C   0  0  0  0  0  0  0  0  0  0  0  0
  -15.4429  -38.0675   -9.7057 C   0  0  0  0  0  0  0  0  0  0  0  0
  -15.3248  -36.8942  -10.5111 C   0  0  0  0  0  0  0  0  0  0  0  0
  -14.4218  -36.7265  -11.5131 C   0  0  0  0  0  0  0  0  0  0  0  0
  -14.3444  -35.5883  -12.2534 F   0  0  0  0  0  0  0  0  0  0  0  0
  -13.5864  -37.7902  -11.7297 C   0  0  0  0  0  0  0  0  0  0  0  0
  -12.6225  -37.6215  -12.7889 N   0  0  0  0  0  0  0  0  0  0  0  0
  -13.6499  -38.9858  -10.9669 C   0  0  0  0  0  0  0  0  0  0  0  0
  -12.6773  -39.9863  -11.5111 C   0  0  0  0  0  0  0  0  0  0  0  0
  -13.3096  -41.1968  -12.1623 C   0  0  0  0  0  0  0  0  0  0  0  0
  -13.8700  -40.9861  -13.5138 C   0  0  0  0  0  0  0  0  0  0  0  0
  -15.3012  -40.5833  -13.5892 C   0  0  0  0  0  0  0  0  0  0  0  0
  -16.2413  -41.5879  -13.0977 N   0  0  0  0  0  0  0  0  0  0  0  0
  -16.6241  -41.8942  -11.7509 C   0  0  0  0  0  0  0  0  0  0  0  0
  -16.5345  -43.2992  -11.5582 C   0  0  0  0  0  0  0  0  0  0  0  0
  -16.7599  -43.9084  -10.3586 C   0  0  0  0  0  0  0  0  0  0  0  0
  -17.0818  -43.0684   -9.3306 C   0  0  0  0  0  0  0  0  0  0  0  0
  -17.1888  -41.6523   -9.4518 C   0  0  0  0  0  0  0  0  0  0  0  0
  -16.9581  -41.0861  -10.6906 C   0  0  0  0  0  0  0  0  0  0  0  0
  -17.4597  -41.0543   -8.1358 C   0  0  0  0  0  0  0  0  0  0  0  0
  -18.4058  -41.6874   -7.4140 O   0  0  0  0  0  0  0  0  0  0  0  0
  -16.9927  -39.9745   -7.3879 N   0  0  0  0  0  0  0  0  0  0  0  0
  -14.5720  -39.1140   -9.9610 C   0  0  0  0  0  0  0  0  0  0  0  0
  1  2  1  0
  2  3  1  0
  2  4  1  0
  4  5  2  0
  5  6  1  0
  6  7  2  0
  7  8  1  0
  8  9  2  0
  8 10  1  0
 10 11  1  0
 10 12  1  0
 10 13  1  0
 13 14  1  0
 14 15  1  0
 15 16  1  1
 15 17  1  0
 17 18  1  6
 18 19  1  0
 19 20  1  0
 20 21  2  0
 21 22  1  0
 21 23  1  0
 23 24  1  0
 23 25  2  0
 25 26  1  0
 26 27  1  0
 27 28  1  0
 28 29  1  0
 29 30  1  0
 30 31  1  0
 31 32  1  0
 32 33  2  0
 33 34  1  0
 34 35  2  0
 35 36  1  0
 35 37  1  0
 37 38  2  0
 37 39  1  0
 25 40  1  0
  9  4  1  0
 36 31  2  0
 39 17  1  0
 40 19  2  0
M  END
$$$$
