
     RDKit          3D

 40 43  0  0  0  0  0  0  0  0999 V2000
  -22.8325  -38.0529   -7.6951 C   0  0  0  0  0  0  0  0  0  0  0  0
  -21.6473  -37.6339   -8.5762 C   0  0  0  0  0  0  0  0  0  0  0  0
  -20.8286  -36.6738   -7.7118 C   0  0  0  0  0  0  0  0  0  0  0  0
  -20.8704  -38.8730   -8.8316 C   0  0  0  0  0  0  0  0  0  0  0  0
  -20.8801  -39.4406  -10.0925 C   0  0  0  0  0  0  0  0  0  0  0  0
  -20.1687  -40.5858  -10.3505 C   0  0  0  0  0  0  0  0  0  0  0  0
  -19.4306  -41.1928   -9.3576 C   0  0  0  0  0  0  0  0  0  0  0  0
  -19.4016  -40.6591   -8.1095 C   0  0  0  0  0  0  0  0  0  0  0  0
  -20.1227  -39.5042   -7.8618 C   0  0  0  0  0  0  0  0  0  0  0  0
  -18.6234  -41.2279   -6.9516 C   0  0  0  0  0  0  0  0  0  0  0  0
  -19.1757  -40.5224   -5.7259 C   0  0  0  0  0  0  0  0  0  0  0  0
  -18.9632  -42.6909   -6.8900 C   0  0  0  0  0  0  0  0  0  0  0  0
  -17.2208  -41.0278   -7.1081 N   0  0  0  0  0  0  0  0  0  0  0  0
  -16.8852  -39.7347   -6.4811 C   0  0  0  0  0  0  0  0  0  0  0  0
  -16.5646  -38.7092   -7.5023 C   0  0  1  0  0  0  0  0  0  0  0  0
  -16.4901  -37.4454   -6.9647 O   0  0  0  0  0  0  0  0  0  0  0  0
  -15.3040  -39.0605   -8.3340 C   0  0  2  0  0  0  0  0  0  0  0  0
  -15.0146  -37.9185   -9.1554 C   0  0  0  0  0  0  0  0  0  0  0  0
  -13.8319  -37.6794   -9.9908 C   0  0  0  0  0  0  0  0  0  0  0  0
  -13.6913  -36.2741  -10.2017 C   0  0  0  0  0  0  0  0  0  0  0  0
  -12.7543  -35.6975  -10.9998 C   0  0  0  0  0  0  0  0  0  0  0  0
  -12.6565  -34.3515  -11.1687 F   0  0  0  0  0  0  0  0  0  0  0  0
  -11.9062  -36.5703  -11.6284 C   0  0  0  0  0  0  0  0  0  0  0  0
  -10.9063  -35.9686  -12.4754 N   0  0  0  0  0  0  0  0  0  0  0  0
  -11.9907  -37.9778  -11.4637 C   0  0  0  0  0  0  0  0  0  0  0  0
  -10.9942  -38.6529  -12.3550 C   0  0  0  0  0  0  0  0  0  0  0  0
  -11.5969  -39.4534  -13.4888 C   0  0  0  0  0  0  0  0  0  0  0  0
  -12.1101  -38.6703  -14.6327 C   0  0  0  0  0  0  0  0  0  0  0  0
  -13.5397  -38.2594  -14.5743 C   0  0  0  0  0  0  0  0  0  0  0  0
  -14.4916  -39.3675  -14.6007 N   0  0  0  0  0  0  0  0  0  0  0  0
  -14.9203  -40.2244  -13.5348 C   0  0  0  0  0  0  0  0  0  0  0  0
  -14.8304  -41.5744  -13.9689 C   0  0  0  0  0  0  0  0  0  0  0  0
  -15.0950  -42.6419  -13.1618 C   0  0  0  0  0  0  0  0  0  0  0  0
  -15.4574  -42.3285  -11.8825 C   0  0  0  0  0  0  0  0  0  0  0  0
  -15.5673  -40.9994  -11.3798 C   0  0  0  0  0  0  0  0  0  0  0  0
  -15.2958  -39.9536  -12.2408 C   0  0  0  0  0  0  0  0  0  0  0  0
  -15.8878  -41.0297   -9.9448 C   0  0  0  0  0  0  0  0  0  0  0  0
  -16.8556  -41.9033   -9.6027 O   0  0  0  0  0  0  0  0  0  0  0  0
  -15.4531  -40.3872   -8.7865 N   0  0  0  0  0  0  0  0  0  0  0  0
  -12.9471  -38.5204  -10.6455 C   0  0  0  0  0  0  0  0  0  0  0  0
  1  2  1  0
  2  3  1  0
  2  4  1  0
  4  5  2  0
  5  6  1  0
  6  7  2  0
  7  8  1  0
  8  9  2  0
  8 10  1  0
 10 11  1  0
 10 12  1  0
 10 13  1  0
 13 14  1  0
 14 15  1  0
 15 16  1  1
 15 17  1  0
 17 18  1  6
 18 19  1  0
 19 20  1  0
 20 21  2  0
 21 22  1  0
 21 23  1  0
 23 24  1  0
 23 25  2  0
 25 26  1  0
 26 27  1  0
 27 28  1  0
 28 29  1  0
 29 30  1  0
 30 31  1  0
 31 32  1  0
 32 33  2  0
 33 34  1  0
 34 35  2  0
 35 36  1  0
 35 37  1  0
 37 38  2  0
 37 39  1  0
 25 40  1  0
  9  4  1  0
 36 31  2  0
 39 17  1  0
 40 19  2  0
M  END
$$$$
