
     RDKit          3D

 40 43  0  0  0  0  0  0  0  0999 V2000
  -10.7205  -36.1489  -12.5428 C   0  0  0  0  0  0  0  0  0  0  0  0
  -11.7151  -34.9824  -12.6240 C   0  0  0  0  0  0  0  0  0  0  0  0
  -12.0108  -34.8144  -14.1152 C   0  0  0  0  0  0  0  0  0  0  0  0
  -12.9368  -35.4375  -11.9137 C   0  0  0  0  0  0  0  0  0  0  0  0
  -13.8850  -34.5118  -11.5184 C   0  0  0  0  0  0  0  0  0  0  0  0
  -15.0218  -34.9108  -10.8609 C   0  0  0  0  0  0  0  0  0  0  0  0
  -15.2409  -36.2424  -10.5815 C   0  0  0  0  0  0  0  0  0  0  0  0
  -14.3281  -37.1748  -10.9570 C   0  0  0  0  0  0  0  0  0  0  0  0
  -13.1861  -36.7602  -11.6195 C   0  0  0  0  0  0  0  0  0  0  0  0
  -14.4659  -38.6555  -10.7155 C   0  0  0  0  0  0  0  0  0  0  0  0
  -13.9402  -39.3080  -11.9817 C   0  0  0  0  0  0  0  0  0  0  0  0
  -13.5587  -38.9834   -9.5626 C   0  0  0  0  0  0  0  0  0  0  0  0
  -15.8143  -39.0221  -10.4345 N   0  0  0  0  0  0  0  0  0  0  0  0
  -16.3631  -38.0141   -9.5069 C   0  0  0  0  0  0  0  0  0  0  0  0
  -16.7526  -38.6280   -8.2150 C   0  0  1  0  0  0  0  0  0  0  0  0
  -16.5772  -37.7674   -7.1566 O   0  0  0  0  0  0  0  0  0  0  0  0
  -18.1806  -39.2315   -8.2408 C   0  0  2  0  0  0  0  0  0  0  0  0
  -18.5162  -39.5669   -6.8853 C   0  0  0  0  0  0  0  0  0  0  0  0
  -19.8125  -40.0049   -6.3545 C   0  0  0  0  0  0  0  0  0  0  0  0
  -19.8569  -39.7260   -4.9547 C   0  0  0  0  0  0  0  0  0  0  0  0
  -20.8737  -40.0768   -4.1238 C   0  0  0  0  0  0  0  0  0  0  0  0
  -20.8737  -39.7872   -2.7950 F   0  0  0  0  0  0  0  0  0  0  0  0
  -21.9090  -40.7472   -4.7195 C   0  0  0  0  0  0  0  0  0  0  0  0
  -22.9946  -41.1215   -3.8471 N   0  0  0  0  0  0  0  0  0  0  0  0
  -21.9288  -41.0572   -6.1047 C   0  0  0  0  0  0  0  0  0  0  0  0
  -23.1420  -41.8756   -6.4235 C   0  0  0  0  0  0  0  0  0  0  0  0
  -22.8552  -43.3066   -6.8227 C   0  0  0  0  0  0  0  0  0  0  0  0
  -22.5061  -44.2283   -5.7211 C   0  0  0  0  0  0  0  0  0  0  0  0
  -21.0605  -44.3571   -5.3895 C   0  0  0  0  0  0  0  0  0  0  0  0
  -20.2433  -44.9385   -6.4519 N   0  0  0  0  0  0  0  0  0  0  0  0
  -19.6961  -44.3178   -7.6221 C   0  0  0  0  0  0  0  0  0  0  0  0
  -19.9990  -45.1246   -8.7519 C   0  0  0  0  0  0  0  0  0  0  0  0
  -19.6832  -44.7733  -10.0317 C   0  0  0  0  0  0  0  0  0  0  0  0
  -19.0464  -43.5722  -10.1653 C   0  0  0  0  0  0  0  0  0  0  0  0
  -18.7124  -42.7131   -9.0783 C   0  0  0  0  0  0  0  0  0  0  0  0
  -19.0477  -43.1193   -7.8011 C   0  0  0  0  0  0  0  0  0  0  0  0
  -18.1186  -41.4673   -9.5864 C   0  0  0  0  0  0  0  0  0  0  0  0
  -17.1903  -41.6380  -10.5488 O   0  0  0  0  0  0  0  0  0  0  0  0
  -18.2518  -40.1001   -9.3488 N   0  0  0  0  0  0  0  0  0  0  0  0
  -20.8858  -40.6814   -6.9105 C   0  0  0  0  0  0  0  0  0  0  0  0
  1  2  1  0
  2  3  1  0
  2  4  1  0
  4  5  2  0
  5  6  1  0
  6  7  2  0
  7  8  1  0
  8  9  2  0
  8 10  1  0
 10 11  1  0
 10 12  1  0
 10 13  1  0
 13 14  1  0
 14 15  1  0
 15 16  1  1
 15 17  1  0
 17 18  1  1
 18 19  1  0
 19 20  1  0
 20 21  2  0
 21 22  1  0
 21 23  1  0
 23 24  1  0
 23 25  2  0
 25 26  1  0
 26 27  1  0
 27 28  1  0
 28 29  1  0
 29 30  1  0
 30 31  1  0
 31 32  1  0
 32 33  2  0
 33 34  1  0
 34 35  2  0
 35 36  1  0
 35 37  1  0
 37 38  2  0
 37 39  1  0
 25 40  1  0
  9  4  1  0
 36 31  2  0
 39 17  1  0
 40 19  2  0
M  END
$$$$
