
     RDKit          3D

 40 43  0  0  0  0  0  0  0  0999 V2000
  -16.2394  -42.3637  -12.8303 C   0  0  0  0  0  0  0  0  0  0  0  0
  -15.2206  -41.8637  -11.7966 C   0  0  0  0  0  0  0  0  0  0  0  0
  -13.9935  -42.7577  -11.9825 C   0  0  0  0  0  0  0  0  0  0  0  0
  -14.8944  -40.4689  -12.1867 C   0  0  0  0  0  0  0  0  0  0  0  0
  -14.4664  -40.1991  -13.4736 C   0  0  0  0  0  0  0  0  0  0  0  0
  -14.1598  -38.9168  -13.8555 C   0  0  0  0  0  0  0  0  0  0  0  0
  -14.2725  -37.8725  -12.9633 C   0  0  0  0  0  0  0  0  0  0  0  0
  -14.6901  -38.1060  -11.6926 C   0  0  0  0  0  0  0  0  0  0  0  0
  -14.9964  -39.4030  -11.3198 C   0  0  0  0  0  0  0  0  0  0  0  0
  -14.8608  -37.0443  -10.6374 C   0  0  0  0  0  0  0  0  0  0  0  0
  -13.9592  -35.9057  -11.0798 C   0  0  0  0  0  0  0  0  0  0  0  0
  -16.2977  -36.6077  -10.7038 C   0  0  0  0  0  0  0  0  0  0  0  0
  -14.5262  -37.5300   -9.3398 N   0  0  0  0  0  0  0  0  0  0  0  0
  -15.7312  -37.4071   -8.4967 C   0  0  0  0  0  0  0  0  0  0  0  0
  -16.0212  -38.6750   -7.7855 C   0  0  1  0  0  0  0  0  0  0  0  0
  -15.9326  -38.5372   -6.4199 O   0  0  0  0  0  0  0  0  0  0  0  0
  -17.3661  -39.3142   -8.2175 C   0  0  2  0  0  0  0  0  0  0  0  0
  -18.3141  -39.0362   -7.1751 C   0  0  0  0  0  0  0  0  0  0  0  0
  -19.7624  -39.2732   -7.1805 C   0  0  0  0  0  0  0  0  0  0  0  0
  -20.3760  -38.4079   -6.2245 C   0  0  0  0  0  0  0  0  0  0  0  0
  -21.6964  -38.4171   -5.9021 C   0  0  0  0  0  0  0  0  0  0  0  0
  -22.2377  -37.5709   -4.9854 F   0  0  0  0  0  0  0  0  0  0  0  0
  -22.4532  -39.3440   -6.5686 C   0  0  0  0  0  0  0  0  0  0  0  0
  -23.8562  -39.3603   -6.2359 N   0  0  0  0  0  0  0  0  0  0  0  0
  -21.9076  -40.2347   -7.5300 C   0  0  0  0  0  0  0  0  0  0  0  0
  -22.9671  -41.1826   -8.0013 C   0  0  0  0  0  0  0  0  0  0  0  0
  -22.7628  -42.6221   -7.5824 C   0  0  0  0  0  0  0  0  0  0  0  0
  -23.0861  -42.9388   -6.1752 C   0  0  0  0  0  0  0  0  0  0  0  0
  -21.9761  -42.8187   -5.1905 C   0  0  0  0  0  0  0  0  0  0  0  0
  -20.8766  -43.7583   -5.3974 N   0  0  0  0  0  0  0  0  0  0  0  0
  -19.7786  -43.6861   -6.3158 C   0  0  0  0  0  0  0  0  0  0  0  0
  -19.6741  -44.9260   -7.0021 C   0  0  0  0  0  0  0  0  0  0  0  0
  -18.7747  -45.1577   -8.0012 C   0  0  0  0  0  0  0  0  0  0  0  0
  -17.9641  -44.1027   -8.3108 C   0  0  0  0  0  0  0  0  0  0  0  0
  -18.0140  -42.8329   -7.6654 C   0  0  0  0  0  0  0  0  0  0  0  0
  -18.9382  -42.6528   -6.6544 C   0  0  0  0  0  0  0  0  0  0  0  0
  -17.0689  -41.9060   -8.3061 C   0  0  0  0  0  0  0  0  0  0  0  0
  -15.8508  -42.4269   -8.5548 O   0  0  0  0  0  0  0  0  0  0  0  0
  -17.0763  -40.5856   -8.7532 N   0  0  0  0  0  0  0  0  0  0  0  0
  -20.5712  -40.1904   -7.8312 C   0  0  0  0  0  0  0  0  0  0  0  0
  1  2  1  0
  2  3  1  0
  2  4  1  0
  4  5  2  0
  5  6  1  0
  6  7  2  0
  7  8  1  0
  8  9  2  0
  8 10  1  0
 10 11  1  0
 10 12  1  0
 10 13  1  0
 13 14  1  0
 14 15  1  0
 15 16  1  1
 15 17  1  0
 17 18  1  1
 18 19  1  0
 19 20  1  0
 20 21  2  0
 21 22  1  0
 21 23  1  0
 23 24  1  0
 23 25  2  0
 25 26  1  0
 26 27  1  0
 27 28  1  0
 28 29  1  0
 29 30  1  0
 30 31  1  0
 31 32  1  0
 32 33  2  0
 33 34  1  0
 34 35  2  0
 35 36  1  0
 35 37  1  0
 37 38  2  0
 37 39  1  0
 25 40  1  0
  9  4  1  0
 36 31  2  0
 39 17  1  0
 40 19  2  0
M  END
$$$$
