
     RDKit          3D

 40 43  0  0  0  0  0  0  0  0999 V2000
  -12.4163  -35.0702  -11.4429 C   0  0  0  0  0  0  0  0  0  0  0  0
  -13.7012  -35.4702  -12.1814 C   0  0  0  0  0  0  0  0  0  0  0  0
  -13.6402  -34.7276  -13.5171 C   0  0  0  0  0  0  0  0  0  0  0  0
  -13.6014  -36.9336  -12.4108 C   0  0  0  0  0  0  0  0  0  0  0  0
  -13.4666  -37.4180  -13.6990 C   0  0  0  0  0  0  0  0  0  0  0  0
  -13.3724  -38.7671  -13.9337 C   0  0  0  0  0  0  0  0  0  0  0  0
  -13.4104  -39.6659  -12.8896 C   0  0  0  0  0  0  0  0  0  0  0  0
  -13.5421  -39.2206  -11.6138 C   0  0  0  0  0  0  0  0  0  0  0  0
  -13.6359  -37.8582  -11.3900 C   0  0  0  0  0  0  0  0  0  0  0  0
  -13.5844  -40.1070  -10.3962 C   0  0  0  0  0  0  0  0  0  0  0  0
  -14.5270  -41.2373  -10.7689 C   0  0  0  0  0  0  0  0  0  0  0  0
  -12.1929  -40.6465  -10.2160 C   0  0  0  0  0  0  0  0  0  0  0  0
  -14.0184  -39.3961   -9.2396 N   0  0  0  0  0  0  0  0  0  0  0  0
  -14.8165  -40.3285   -8.4202 C   0  0  0  0  0  0  0  0  0  0  0  0
  -15.7769  -39.5995   -7.5578 C   0  0  1  0  0  0  0  0  0  0  0  0
  -15.4552  -38.2682   -7.4313 O   0  0  0  0  0  0  0  0  0  0  0  0
  -17.2512  -39.8008   -7.9935 C   0  0  2  0  0  0  0  0  0  0  0  0
  -18.0537  -39.7056   -6.8064 C   0  0  0  0  0  0  0  0  0  0  0  0
  -19.5168  -39.6536   -6.7033 C   0  0  0  0  0  0  0  0  0  0  0  0
  -19.8714  -39.0483   -5.4595 C   0  0  0  0  0  0  0  0  0  0  0  0
  -21.1413  -38.9157   -4.9933 C   0  0  0  0  0  0  0  0  0  0  0  0
  -21.4319  -38.3287   -3.8014 F   0  0  0  0  0  0  0  0  0  0  0  0
  -22.1186  -39.4169   -5.8118 C   0  0  0  0  0  0  0  0  0  0  0  0
  -23.4698  -39.2787   -5.3277 N   0  0  0  0  0  0  0  0  0  0  0  0
  -21.8360  -40.0312   -7.0600 C   0  0  0  0  0  0  0  0  0  0  0  0
  -23.1014  -40.5590   -7.6630 C   0  0  0  0  0  0  0  0  0  0  0  0
  -23.1894  -42.0678   -7.7340 C   0  0  0  0  0  0  0  0  0  0  0  0
  -23.4907  -42.7592   -6.4627 C   0  0  0  0  0  0  0  0  0  0  0  0
  -22.3253  -43.1753   -5.6351 C   0  0  0  0  0  0  0  0  0  0  0  0
  -21.4693  -44.1839   -6.2554 N   0  0  0  0  0  0  0  0  0  0  0  0
  -20.4375  -44.0227   -7.2371 C   0  0  0  0  0  0  0  0  0  0  0  0
  -20.6444  -44.9682   -8.2775 C   0  0  0  0  0  0  0  0  0  0  0  0
  -19.8765  -45.0254   -9.4036 C   0  0  0  0  0  0  0  0  0  0  0  0
  -18.8763  -44.0977   -9.4737 C   0  0  0  0  0  0  0  0  0  0  0  0
  -18.6122  -43.1215   -8.4695 C   0  0  0  0  0  0  0  0  0  0  0  0
  -19.4146  -43.1113   -7.3449 C   0  0  0  0  0  0  0  0  0  0  0  0
  -17.5280  -42.2298   -8.9081 C   0  0  0  0  0  0  0  0  0  0  0  0
  -16.4683  -42.8589   -9.4543 O   0  0  0  0  0  0  0  0  0  0  0  0
  -17.2755  -40.8589   -8.9247 N   0  0  0  0  0  0  0  0  0  0  0  0
  -20.5418  -40.1412   -7.4974 C   0  0  0  0  0  0  0  0  0  0  0  0
  1  2  1  0
  2  3  1  0
  2  4  1  0
  4  5  2  0
  5  6  1  0
  6  7  2  0
  7  8  1  0
  8  9  2  0
  8 10  1  0
 10 11  1  0
 10 12  1  0
 10 13  1  0
 13 14  1  0
 14 15  1  0
 15 16  1  6
 15 17  1  0
 17 18  1  1
 18 19  1  0
 19 20  1  0
 20 21  2  0
 21 22  1  0
 21 23  1  0
 23 24  1  0
 23 25  2  0
 25 26  1  0
 26 27  1  0
 27 28  1  0
 28 29  1  0
 29 30  1  0
 30 31  1  0
 31 32  1  0
 32 33  2  0
 33 34  1  0
 34 35  2  0
 35 36  1  0
 35 37  1  0
 37 38  2  0
 37 39  1  0
 25 40  1  0
  9  4  1  0
 36 31  2  0
 39 17  1  0
 40 19  2  0
M  END
$$$$
