
     RDKit          3D

 40 43  0  0  0  0  0  0  0  0999 V2000
  -10.7958  -35.3720  -11.4434 C   0  0  0  0  0  0  0  0  0  0  0  0
  -12.0267  -35.3489  -10.5265 C   0  0  0  0  0  0  0  0  0  0  0  0
  -13.1141  -34.6426  -11.3377 C   0  0  0  0  0  0  0  0  0  0  0  0
  -12.4000  -36.7693  -10.3085 C   0  0  0  0  0  0  0  0  0  0  0  0
  -11.7755  -37.4971   -9.3123 C   0  0  0  0  0  0  0  0  0  0  0  0
  -12.1055  -38.8113   -9.0934 C   0  0  0  0  0  0  0  0  0  0  0  0
  -13.0660  -39.4317   -9.8625 C   0  0  0  0  0  0  0  0  0  0  0  0
  -13.6966  -38.7432  -10.8483 C   0  0  0  0  0  0  0  0  0  0  0  0
  -13.3554  -37.4188  -11.0591 C   0  0  0  0  0  0  0  0  0  0  0  0
  -14.7673  -39.3128  -11.7423 C   0  0  0  0  0  0  0  0  0  0  0  0
  -14.9145  -38.3034  -12.8668 C   0  0  0  0  0  0  0  0  0  0  0  0
  -14.2220  -40.6030  -12.2880 C   0  0  0  0  0  0  0  0  0  0  0  0
  -15.9880  -39.5231  -11.0372 N   0  0  0  0  0  0  0  0  0  0  0  0
  -15.6413  -39.9905   -9.6811 C   0  0  0  0  0  0  0  0  0  0  0  0
  -16.4254  -39.2724   -8.6482 C   0  0  1  0  0  0  0  0  0  0  0  0
  -16.2718  -37.9083   -8.7336 O   0  0  0  0  0  0  0  0  0  0  0  0
  -17.9192  -39.6873   -8.6288 C   0  0  2  0  0  0  0  0  0  0  0  0
  -18.3497  -39.6325   -7.2598 C   0  0  0  0  0  0  0  0  0  0  0  0
  -19.7128  -39.7658   -6.7324 C   0  0  0  0  0  0  0  0  0  0  0  0
  -19.7743  -39.1445   -5.4480 C   0  0  0  0  0  0  0  0  0  0  0  0
  -20.8608  -39.1530   -4.6314 C   0  0  0  0  0  0  0  0  0  0  0  0
  -20.8742  -38.5444   -3.4152 F   0  0  0  0  0  0  0  0  0  0  0  0
  -21.9524  -39.8211   -5.1196 C   0  0  0  0  0  0  0  0  0  0  0  0
  -23.1117  -39.8336   -4.2621 N   0  0  0  0  0  0  0  0  0  0  0  0
  -21.9591  -40.4609   -6.3869 C   0  0  0  0  0  0  0  0  0  0  0  0
  -23.2575  -41.1810   -6.5840 C   0  0  0  0  0  0  0  0  0  0  0  0
  -23.1495  -42.6900   -6.6046 C   0  0  0  0  0  0  0  0  0  0  0  0
  -22.9704  -43.3441   -5.2911 C   0  0  0  0  0  0  0  0  0  0  0  0
  -21.5693  -43.5591   -4.8364 C   0  0  0  0  0  0  0  0  0  0  0  0
  -20.7962  -44.4802   -5.6662 N   0  0  0  0  0  0  0  0  0  0  0  0
  -20.1253  -44.2401   -6.9098 C   0  0  0  0  0  0  0  0  0  0  0  0
  -20.4889  -45.2600   -7.8300 C   0  0  0  0  0  0  0  0  0  0  0  0
  -20.0790  -45.2784   -9.1310 C   0  0  0  0  0  0  0  0  0  0  0  0
  -19.2823  -44.2337   -9.5050 C   0  0  0  0  0  0  0  0  0  0  0  0
  -18.8792  -43.1779   -8.6367 C   0  0  0  0  0  0  0  0  0  0  0  0
  -19.3157  -43.2107   -7.3263 C   0  0  0  0  0  0  0  0  0  0  0  0
  -18.1044  -42.1781   -9.3870 C   0  0  0  0  0  0  0  0  0  0  0  0
  -17.1703  -42.6929  -10.2113 O   0  0  0  0  0  0  0  0  0  0  0  0
  -18.0626  -40.7890   -9.4965 N   0  0  0  0  0  0  0  0  0  0  0  0
  -20.8443  -40.4253   -7.1834 C   0  0  0  0  0  0  0  0  0  0  0  0
  1  2  1  0
  2  3  1  0
  2  4  1  0
  4  5  2  0
  5  6  1  0
  6  7  2  0
  7  8  1  0
  8  9  2  0
  8 10  1  0
 10 11  1  0
 10 12  1  0
 10 13  1  0
 13 14  1  0
 14 15  1  0
 15 16  1  6
 15 17  1  0
 17 18  1  1
 18 19  1  0
 19 20  1  0
 20 21  2  0
 21 22  1  0
 21 23  1  0
 23 24  1  0
 23 25  2  0
 25 26  1  0
 26 27  1  0
 27 28  1  0
 28 29  1  0
 29 30  1  0
 30 31  1  0
 31 32  1  0
 32 33  2  0
 33 34  1  0
 34 35  2  0
 35 36  1  0
 35 37  1  0
 37 38  2  0
 37 39  1  0
 25 40  1  0
  9  4  1  0
 36 31  2  0
 39 17  1  0
 40 19  2  0
M  END
$$$$
