
     RDKit          3D

 40 43  0  0  0  0  0  0  0  0999 V2000
  -15.7270  -41.7424   -7.3942 C   0  0  0  0  0  0  0  0  0  0  0  0
  -14.2430  -42.1076   -7.5386 C   0  0  0  0  0  0  0  0  0  0  0  0
  -14.2331  -43.4525   -8.2670 C   0  0  0  0  0  0  0  0  0  0  0  0
  -13.6469  -41.0588   -8.4039 C   0  0  0  0  0  0  0  0  0  0  0  0
  -12.2807  -41.0406   -8.6171 C   0  0  0  0  0  0  0  0  0  0  0  0
  -11.7088  -40.0802   -9.4137 C   0  0  0  0  0  0  0  0  0  0  0  0
  -12.4852  -39.1146  -10.0170 C   0  0  0  0  0  0  0  0  0  0  0  0
  -13.8295  -39.1063   -9.8266 C   0  0  0  0  0  0  0  0  0  0  0  0
  -14.3943  -40.0799   -9.0215 C   0  0  0  0  0  0  0  0  0  0  0  0
  -14.7766  -38.1093  -10.4420 C   0  0  0  0  0  0  0  0  0  0  0  0
  -13.8937  -37.1898  -11.2666 C   0  0  0  0  0  0  0  0  0  0  0  0
  -15.6831  -38.8910  -11.3514 C   0  0  0  0  0  0  0  0  0  0  0  0
  -15.5197  -37.4044   -9.4506 N   0  0  0  0  0  0  0  0  0  0  0  0
  -16.9270  -37.3694   -9.8935 C   0  0  0  0  0  0  0  0  0  0  0  0
  -17.8467  -37.7402   -8.7916 C   0  0  1  0  0  0  0  0  0  0  0  0
  -18.4570  -36.6419   -8.2320 O   0  0  0  0  0  0  0  0  0  0  0  0
  -18.8732  -38.8268   -9.2033 C   0  0  2  0  0  0  0  0  0  0  0  0
  -20.0410  -38.6262   -8.3917 C   0  0  0  0  0  0  0  0  0  0  0  0
  -21.3505  -39.2780   -8.5113 C   0  0  0  0  0  0  0  0  0  0  0  0
  -22.3369  -38.4501   -7.8941 C   0  0  0  0  0  0  0  0  0  0  0  0
  -23.6464  -38.7817   -7.7432 C   0  0  0  0  0  0  0  0  0  0  0  0
  -24.5520  -37.9586   -7.1499 F   0  0  0  0  0  0  0  0  0  0  0  0
  -23.9971  -40.0116   -8.2335 C   0  0  0  0  0  0  0  0  0  0  0  0
  -25.3850  -40.3720   -8.0809 N   0  0  0  0  0  0  0  0  0  0  0  0
  -23.0675  -40.8843   -8.8577 C   0  0  0  0  0  0  0  0  0  0  0  0
  -23.7366  -42.1819   -9.1923 C   0  0  0  0  0  0  0  0  0  0  0  0
  -23.2506  -43.3711   -8.3930 C   0  0  0  0  0  0  0  0  0  0  0  0
  -23.7423  -43.4606   -7.0019 C   0  0  0  0  0  0  0  0  0  0  0  0
  -22.9091  -42.8085   -5.9547 C   0  0  0  0  0  0  0  0  0  0  0  0
  -21.5855  -43.4008   -5.7758 N   0  0  0  0  0  0  0  0  0  0  0  0
  -20.3898  -43.2044   -6.5412 C   0  0  0  0  0  0  0  0  0  0  0  0
  -19.8400  -44.4741   -6.8647 C   0  0  0  0  0  0  0  0  0  0  0  0
  -18.7384  -44.6367   -7.6527 C   0  0  0  0  0  0  0  0  0  0  0  0
  -18.1844  -43.4805   -8.1243 C   0  0  0  0  0  0  0  0  0  0  0  0
  -18.6825  -42.1755   -7.8411 C   0  0  0  0  0  0  0  0  0  0  0  0
  -19.7964  -42.0658   -7.0313 C   0  0  0  0  0  0  0  0  0  0  0  0
  -17.9051  -41.1695   -8.5804 C   0  0  0  0  0  0  0  0  0  0  0  0
  -16.5695  -41.3459   -8.5357 O   0  0  0  0  0  0  0  0  0  0  0  0
  -18.1684  -40.0386   -9.3519 N   0  0  0  0  0  0  0  0  0  0  0  0
  -21.7560  -40.5109   -8.9954 C   0  0  0  0  0  0  0  0  0  0  0  0
  1  2  1  0
  2  3  1  0
  2  4  1  0
  4  5  2  0
  5  6  1  0
  6  7  2  0
  7  8  1  0
  8  9  2  0
  8 10  1  0
 10 11  1  0
 10 12  1  0
 10 13  1  0
 13 14  1  0
 14 15  1  0
 15 16  1  6
 15 17  1  0
 17 18  1  1
 18 19  1  0
 19 20  1  0
 20 21  2  0
 21 22  1  0
 21 23  1  0
 23 24  1  0
 23 25  2  0
 25 26  1  0
 26 27  1  0
 27 28  1  0
 28 29  1  0
 29 30  1  0
 30 31  1  0
 31 32  1  0
 32 33  2  0
 33 34  1  0
 34 35  2  0
 35 36  1  0
 35 37  1  0
 37 38  2  0
 37 39  1  0
 25 40  1  0
  9  4  1  0
 36 31  2  0
 39 17  1  0
 40 19  2  0
M  END
$$$$
