
     RDKit          3D

 40 43  0  0  0  0  0  0  0  0999 V2000
  -24.3695  -43.3309   -6.4852 C   0  0  0  0  0  0  0  0  0  0  0  0
  -23.0134  -43.6861   -5.8597 C   0  0  0  0  0  0  0  0  0  0  0  0
  -22.2336  -44.3883   -6.9724 C   0  0  0  0  0  0  0  0  0  0  0  0
  -22.3660  -42.3922   -5.5267 C   0  0  0  0  0  0  0  0  0  0  0  0
  -22.4228  -41.9104   -4.2318 C   0  0  0  0  0  0  0  0  0  0  0  0
  -21.8309  -40.7167   -3.9020 C   0  0  0  0  0  0  0  0  0  0  0  0
  -21.1682  -39.9744   -4.8554 C   0  0  0  0  0  0  0  0  0  0  0  0
  -21.0955  -40.4213   -6.1355 C   0  0  0  0  0  0  0  0  0  0  0  0
  -21.6960  -41.6263   -6.4555 C   0  0  0  0  0  0  0  0  0  0  0  0
  -20.3905  -39.7022   -7.2561 C   0  0  0  0  0  0  0  0  0  0  0  0
  -21.2389  -39.9699   -8.4864 C   0  0  0  0  0  0  0  0  0  0  0  0
  -20.4379  -38.2386   -6.9168 C   0  0  0  0  0  0  0  0  0  0  0  0
  -19.0480  -40.1548   -7.4125 N   0  0  0  0  0  0  0  0  0  0  0  0
  -18.2049  -39.3665   -6.4929 C   0  0  0  0  0  0  0  0  0  0  0  0
  -17.2258  -38.5389   -7.2372 C   0  0  1  0  0  0  0  0  0  0  0  0
  -16.8036  -37.4515   -6.5084 O   0  0  0  0  0  0  0  0  0  0  0  0
  -16.0351  -39.3645   -7.7891 C   0  0  2  0  0  0  0  0  0  0  0  0
  -15.5113  -38.6408   -8.9136 C   0  0  0  0  0  0  0  0  0  0  0  0
  -14.2837  -38.9092   -9.6718 C   0  0  0  0  0  0  0  0  0  0  0  0
  -13.8710  -37.7075  -10.3237 C   0  0  0  0  0  0  0  0  0  0  0  0
  -12.8208  -37.6091  -11.1808 C   0  0  0  0  0  0  0  0  0  0  0  0
  -12.4626  -36.4406  -11.7774 F   0  0  0  0  0  0  0  0  0  0  0  0
  -12.1400  -38.7761  -11.4057 C   0  0  0  0  0  0  0  0  0  0  0  0
  -11.0219  -38.6821  -12.3116 N   0  0  0  0  0  0  0  0  0  0  0  0
  -12.4967  -40.0053  -10.7915 C   0  0  0  0  0  0  0  0  0  0  0  0
  -11.6257  -41.1052  -11.3155 C   0  0  0  0  0  0  0  0  0  0  0  0
  -12.3413  -42.1298  -12.1684 C   0  0  0  0  0  0  0  0  0  0  0  0
  -12.6655  -41.7105  -13.5483 C   0  0  0  0  0  0  0  0  0  0  0  0
  -13.9909  -41.0658  -13.7576 C   0  0  0  0  0  0  0  0  0  0  0  0
  -15.1365  -41.9352  -13.4996 N   0  0  0  0  0  0  0  0  0  0  0  0
  -15.7486  -42.2878  -12.2525 C   0  0  0  0  0  0  0  0  0  0  0  0
  -15.9080  -43.6990  -12.2041 C   0  0  0  0  0  0  0  0  0  0  0  0
  -16.3928  -44.3630  -11.1155 C   0  0  0  0  0  0  0  0  0  0  0  0
  -16.7211  -43.5729  -10.0505 C   0  0  0  0  0  0  0  0  0  0  0  0
  -16.5870  -42.1542  -10.0294 C   0  0  0  0  0  0  0  0  0  0  0  0
  -16.0982  -41.5299  -11.1607 C   0  0  0  0  0  0  0  0  0  0  0  0
  -16.9440  -41.6354   -8.7003 C   0  0  0  0  0  0  0  0  0  0  0  0
  -18.0697  -42.1591   -8.1755 O   0  0  0  0  0  0  0  0  0  0  0  0
  -16.4240  -40.7195   -7.7870 N   0  0  0  0  0  0  0  0  0  0  0  0
  -13.5600  -40.0620   -9.9286 C   0  0  0  0  0  0  0  0  0  0  0  0
  1  2  1  0
  2  3  1  0
  2  4  1  0
  4  5  2  0
  5  6  1  0
  6  7  2  0
  7  8  1  0
  8  9  2  0
  8 10  1  0
 10 11  1  0
 10 12  1  0
 10 13  1  0
 13 14  1  0
 14 15  1  0
 15 16  1  1
 15 17  1  0
 17 18  1  6
 18 19  1  0
 19 20  1  0
 20 21  2  0
 21 22  1  0
 21 23  1  0
 23 24  1  0
 23 25  2  0
 25 26  1  0
 26 27  1  0
 27 28  1  0
 28 29  1  0
 29 30  1  0
 30 31  1  0
 31 32  1  0
 32 33  2  0
 33 34  1  0
 34 35  2  0
 35 36  1  0
 35 37  1  0
 37 38  2  0
 37 39  1  0
 25 40  1  0
  9  4  1  0
 36 31  2  0
 39 17  1  0
 40 19  2  0
M  END
$$$$
