
     RDKit          3D

 40 43  0  0  0  0  0  0  0  0999 V2000
  -14.8852  -44.8330  -10.5619 C   0  0  0  0  0  0  0  0  0  0  0  0
  -14.2927  -44.7803  -11.9771 C   0  0  0  0  0  0  0  0  0  0  0  0
  -15.4329  -45.2086  -12.9022 C   0  0  0  0  0  0  0  0  0  0  0  0
  -13.9488  -43.3571  -12.2228 C   0  0  0  0  0  0  0  0  0  0  0  0
  -13.6270  -42.9405  -13.5015 C   0  0  0  0  0  0  0  0  0  0  0  0
  -13.3063  -41.6294  -13.7511 C   0  0  0  0  0  0  0  0  0  0  0  0
  -13.2987  -40.7020  -12.7318 C   0  0  0  0  0  0  0  0  0  0  0  0
  -13.6102  -41.0808  -11.4657 C   0  0  0  0  0  0  0  0  0  0  0  0
  -13.9320  -42.4054  -11.2268 C   0  0  0  0  0  0  0  0  0  0  0  0
  -13.6452  -40.1550  -10.2777 C   0  0  0  0  0  0  0  0  0  0  0  0
  -13.0456  -40.9594   -9.1381 C   0  0  0  0  0  0  0  0  0  0  0  0
  -12.7423  -39.0008  -10.6128 C   0  0  0  0  0  0  0  0  0  0  0  0
  -14.9693  -39.7112   -9.9921 N   0  0  0  0  0  0  0  0  0  0  0  0
  -14.8812  -38.7368   -8.8873 C   0  0  0  0  0  0  0  0  0  0  0  0
  -15.9037  -39.0077   -7.8488 C   0  0  1  0  0  0  0  0  0  0  0  0
  -16.0940  -37.9318   -7.0133 O   0  0  0  0  0  0  0  0  0  0  0  0
  -17.2401  -39.5263   -8.4396 C   0  0  2  0  0  0  0  0  0  0  0  0
  -18.2961  -38.8548   -7.7351 C   0  0  0  0  0  0  0  0  0  0  0  0
  -19.7334  -38.8655   -8.0319 C   0  0  0  0  0  0  0  0  0  0  0  0
  -20.3330  -37.7046   -7.4557 C   0  0  0  0  0  0  0  0  0  0  0  0
  -21.6650  -37.4339   -7.4602 C   0  0  0  0  0  0  0  0  0  0  0  0
  -22.1916  -36.3120   -6.9001 F   0  0  0  0  0  0  0  0  0  0  0  0
  -22.4495  -38.3749   -8.0728 C   0  0  0  0  0  0  0  0  0  0  0  0
  -23.8642  -38.0959   -8.0857 N   0  0  0  0  0  0  0  0  0  0  0  0
  -21.9191  -39.5512   -8.6648 C   0  0  0  0  0  0  0  0  0  0  0  0
  -23.0363  -40.4175   -9.1594 C   0  0  0  0  0  0  0  0  0  0  0  0
  -23.2120  -41.7180   -8.4064 C   0  0  0  0  0  0  0  0  0  0  0  0
  -23.8593  -41.6164   -7.0813 C   0  0  0  0  0  0  0  0  0  0  0  0
  -22.9603  -41.4190   -5.9112 C   0  0  0  0  0  0  0  0  0  0  0  0
  -22.0543  -42.5343   -5.6466 N   0  0  0  0  0  0  0  0  0  0  0  0
  -20.8077  -42.8622   -6.2730 C   0  0  0  0  0  0  0  0  0  0  0  0
  -20.8246  -44.2366   -6.6338 C   0  0  0  0  0  0  0  0  0  0  0  0
  -19.8142  -44.8456   -7.3187 C   0  0  0  0  0  0  0  0  0  0  0  0
  -18.7629  -44.0370   -7.6460 C   0  0  0  0  0  0  0  0  0  0  0  0
  -18.6796  -42.6527   -7.3175 C   0  0  0  0  0  0  0  0  0  0  0  0
  -19.7265  -42.0863   -6.6161 C   0  0  0  0  0  0  0  0  0  0  0  0
  -17.4609  -42.0705   -7.8994 C   0  0  0  0  0  0  0  0  0  0  0  0
  -16.3485  -42.8140   -7.7358 O   0  0  0  0  0  0  0  0  0  0  0  0
  -17.1147  -40.9204   -8.6071 N   0  0  0  0  0  0  0  0  0  0  0  0
  -20.5689  -39.7854   -8.6438 C   0  0  0  0  0  0  0  0  0  0  0  0
  1  2  1  0
  2  3  1  0
  2  4  1  0
  4  5  2  0
  5  6  1  0
  6  7  2  0
  7  8  1  0
  8  9  2  0
  8 10  1  0
 10 11  1  0
 10 12  1  0
 10 13  1  0
 13 14  1  0
 14 15  1  0
 15 16  1  6
 15 17  1  0
 17 18  1  1
 18 19  1  0
 19 20  1  0
 20 21  2  0
 21 22  1  0
 21 23  1  0
 23 24  1  0
 23 25  2  0
 25 26  1  0
 26 27  1  0
 27 28  1  0
 28 29  1  0
 29 30  1  0
 30 31  1  0
 31 32  1  0
 32 33  2  0
 33 34  1  0
 34 35  2  0
 35 36  1  0
 35 37  1  0
 37 38  2  0
 37 39  1  0
 25 40  1  0
  9  4  1  0
 36 31  2  0
 39 17  1  0
 40 19  2  0
M  END
$$$$
