
     RDKit          3D

 40 43  0  0  0  0  0  0  0  0999 V2000
  -18.0933  -34.8602  -12.0938 C   0  0  0  0  0  0  0  0  0  0  0  0
  -17.9406  -36.3249  -11.6605 C   0  0  0  0  0  0  0  0  0  0  0  0
  -18.4881  -37.1450  -12.8296 C   0  0  0  0  0  0  0  0  0  0  0  0
  -16.4814  -36.5583  -11.5178 C   0  0  0  0  0  0  0  0  0  0  0  0
  -15.5926  -35.5387  -11.8052 C   0  0  0  0  0  0  0  0  0  0  0  0
  -14.2396  -35.7328  -11.6797 C   0  0  0  0  0  0  0  0  0  0  0  0
  -13.7400  -36.9483  -11.2647 C   0  0  0  0  0  0  0  0  0  0  0  0
  -14.5878  -37.9687  -10.9753 C   0  0  0  0  0  0  0  0  0  0  0  0
  -15.9497  -37.7606  -11.1054 C   0  0  0  0  0  0  0  0  0  0  0  0
  -14.1576  -39.3334  -10.5039 C   0  0  0  0  0  0  0  0  0  0  0  0
  -15.1679  -40.2917  -11.1090 C   0  0  0  0  0  0  0  0  0  0  0  0
  -12.8018  -39.5814  -11.1039 C   0  0  0  0  0  0  0  0  0  0  0  0
  -14.1172  -39.4129   -9.0813 N   0  0  0  0  0  0  0  0  0  0  0  0
  -15.2644  -38.6435   -8.5620 C   0  0  0  0  0  0  0  0  0  0  0  0
  -15.9624  -39.3819   -7.4826 C   0  0  1  0  0  0  0  0  0  0  0  0
  -16.0263  -38.6581   -6.3148 O   0  0  0  0  0  0  0  0  0  0  0  0
  -17.3553  -39.9078   -7.9155 C   0  0  2  0  0  0  0  0  0  0  0  0
  -18.2499  -39.6727   -6.8168 C   0  0  0  0  0  0  0  0  0  0  0  0
  -19.7086  -39.8307   -6.7862 C   0  0  0  0  0  0  0  0  0  0  0  0
  -20.2393  -39.0216   -5.7359 C   0  0  0  0  0  0  0  0  0  0  0  0
  -21.5463  -38.9889   -5.3643 C   0  0  0  0  0  0  0  0  0  0  0  0
  -22.0073  -38.1992   -4.3575 F   0  0  0  0  0  0  0  0  0  0  0  0
  -22.3766  -39.8116   -6.0783 C   0  0  0  0  0  0  0  0  0  0  0  0
  -23.7662  -39.7823   -5.6938 N   0  0  0  0  0  0  0  0  0  0  0  0
  -21.9154  -40.6417   -7.1335 C   0  0  0  0  0  0  0  0  0  0  0  0
  -23.0424  -41.4864   -7.6432 C   0  0  0  0  0  0  0  0  0  0  0  0
  -22.9056  -42.9661   -7.3583 C   0  0  0  0  0  0  0  0  0  0  0  0
  -23.1980  -43.3881   -5.9721 C   0  0  0  0  0  0  0  0  0  0  0  0
  -22.0501  -43.4148   -5.0248 C   0  0  0  0  0  0  0  0  0  0  0  0
  -21.0131  -44.3898   -5.3547 N   0  0  0  0  0  0  0  0  0  0  0  0
  -19.9449  -44.2955   -6.3055 C   0  0  0  0  0  0  0  0  0  0  0  0
  -19.9341  -45.4738   -7.0997 C   0  0  0  0  0  0  0  0  0  0  0  0
  -19.0839  -45.6641   -8.1494 C   0  0  0  0  0  0  0  0  0  0  0  0
  -18.2260  -44.6306   -8.3982 C   0  0  0  0  0  0  0  0  0  0  0  0
  -18.1819  -43.4219   -7.6442 C   0  0  0  0  0  0  0  0  0  0  0  0
  -19.0594  -43.2827   -6.5862 C   0  0  0  0  0  0  0  0  0  0  0  0
  -17.2084  -42.4938   -8.2389 C   0  0  0  0  0  0  0  0  0  0  0  0
  -16.0309  -43.0550   -8.5788 O   0  0  0  0  0  0  0  0  0  0  0  0
  -17.1563  -41.1405   -8.5697 N   0  0  0  0  0  0  0  0  0  0  0  0
  -20.5898  -40.6424   -7.4815 C   0  0  0  0  0  0  0  0  0  0  0  0
  1  2  1  0
  2  3  1  0
  2  4  1  0
  4  5  2  0
  5  6  1  0
  6  7  2  0
  7  8  1  0
  8  9  2  0
  8 10  1  0
 10 11  1  0
 10 12  1  0
 10 13  1  0
 13 14  1  0
 14 15  1  0
 15 16  1  1
 15 17  1  0
 17 18  1  1
 18 19  1  0
 19 20  1  0
 20 21  2  0
 21 22  1  0
 21 23  1  0
 23 24  1  0
 23 25  2  0
 25 26  1  0
 26 27  1  0
 27 28  1  0
 28 29  1  0
 29 30  1  0
 30 31  1  0
 31 32  1  0
 32 33  2  0
 33 34  1  0
 34 35  2  0
 35 36  1  0
 35 37  1  0
 37 38  2  0
 37 39  1  0
 25 40  1  0
  9  4  1  0
 36 31  2  0
 39 17  1  0
 40 19  2  0
M  END
$$$$
