
     RDKit          3D

 40 43  0  0  0  0  0  0  0  0999 V2000
  -19.0397  -38.0004  -13.3495 C   0  0  0  0  0  0  0  0  0  0  0  0
  -19.0011  -36.5729  -12.7865 C   0  0  0  0  0  0  0  0  0  0  0  0
  -20.0186  -36.5677  -11.6446 C   0  0  0  0  0  0  0  0  0  0  0  0
  -17.6316  -36.3846  -12.2450 C   0  0  0  0  0  0  0  0  0  0  0  0
  -17.0185  -35.1492  -12.3455 C   0  0  0  0  0  0  0  0  0  0  0  0
  -15.7530  -34.9531  -11.8514 C   0  0  0  0  0  0  0  0  0  0  0  0
  -15.0682  -35.9840  -11.2452 C   0  0  0  0  0  0  0  0  0  0  0  0
  -15.6439  -37.2084  -11.1317 C   0  0  0  0  0  0  0  0  0  0  0  0
  -16.9201  -37.3936  -11.6335 C   0  0  0  0  0  0  0  0  0  0  0  0
  -14.9968  -38.4032  -10.4807 C   0  0  0  0  0  0  0  0  0  0  0  0
  -15.8988  -39.5737  -10.8292 C   0  0  0  0  0  0  0  0  0  0  0  0
  -13.6607  -38.5773  -11.1471 C   0  0  0  0  0  0  0  0  0  0  0  0
  -14.8549  -38.2262   -9.0735 N   0  0  0  0  0  0  0  0  0  0  0  0
  -14.8989  -39.5641   -8.4523 C   0  0  0  0  0  0  0  0  0  0  0  0
  -15.8158  -39.5862   -7.2877 C   0  0  1  0  0  0  0  0  0  0  0  0
  -15.7497  -38.4261   -6.5518 O   0  0  0  0  0  0  0  0  0  0  0  0
  -17.2737  -39.9445   -7.6753 C   0  0  2  0  0  0  0  0  0  0  0  0
  -18.0530  -39.8819   -6.4705 C   0  0  0  0  0  0  0  0  0  0  0  0
  -19.5113  -39.9668   -6.3292 C   0  0  0  0  0  0  0  0  0  0  0  0
  -19.8930  -39.3516   -5.0983 C   0  0  0  0  0  0  0  0  0  0  0  0
  -21.1582  -39.3241   -4.6023 C   0  0  0  0  0  0  0  0  0  0  0  0
  -21.4757  -38.7230   -3.4244 F   0  0  0  0  0  0  0  0  0  0  0  0
  -22.1016  -39.9474   -5.3753 C   0  0  0  0  0  0  0  0  0  0  0  0
  -23.4479  -39.9214   -4.8594 N   0  0  0  0  0  0  0  0  0  0  0  0
  -21.7908  -40.5787   -6.6083 C   0  0  0  0  0  0  0  0  0  0  0  0
  -23.0131  -41.2480   -7.1571 C   0  0  0  0  0  0  0  0  0  0  0  0
  -22.9561  -42.7599   -7.1722 C   0  0  0  0  0  0  0  0  0  0  0  0
  -23.1583  -43.4283   -5.8694 C   0  0  0  0  0  0  0  0  0  0  0  0
  -21.9385  -43.6989   -5.0600 C   0  0  0  0  0  0  0  0  0  0  0  0
  -21.0039  -44.6435   -5.6675 N   0  0  0  0  0  0  0  0  0  0  0  0
  -20.0165  -44.4212   -6.6823 C   0  0  0  0  0  0  0  0  0  0  0  0
  -20.1555  -45.4209   -7.6825 C   0  0  0  0  0  0  0  0  0  0  0  0
  -19.4130  -45.4468   -8.8265 C   0  0  0  0  0  0  0  0  0  0  0  0
  -18.5094  -44.4307   -8.9570 C   0  0  0  0  0  0  0  0  0  0  0  0
  -18.3172  -43.3962   -7.9957 C   0  0  0  0  0  0  0  0  0  0  0  0
  -19.0896  -43.4205   -6.8505 C   0  0  0  0  0  0  0  0  0  0  0  0
  -17.3354  -42.4218   -8.4953 C   0  0  0  0  0  0  0  0  0  0  0  0
  -16.2332  -42.9664   -9.0479 O   0  0  0  0  0  0  0  0  0  0  0  0
  -17.2175  -41.0346   -8.5673 N   0  0  0  0  0  0  0  0  0  0  0  0
  -20.5029  -40.5804   -7.0770 C   0  0  0  0  0  0  0  0  0  0  0  0
  1  2  1  0
  2  3  1  0
  2  4  1  0
  4  5  2  0
  5  6  1  0
  6  7  2  0
  7  8  1  0
  8  9  2  0
  8 10  1  0
 10 11  1  0
 10 12  1  0
 10 13  1  0
 13 14  1  0
 14 15  1  0
 15 16  1  6
 15 17  1  0
 17 18  1  1
 18 19  1  0
 19 20  1  0
 20 21  2  0
 21 22  1  0
 21 23  1  0
 23 24  1  0
 23 25  2  0
 25 26  1  0
 26 27  1  0
 27 28  1  0
 28 29  1  0
 29 30  1  0
 30 31  1  0
 31 32  1  0
 32 33  2  0
 33 34  1  0
 34 35  2  0
 35 36  1  0
 35 37  1  0
 37 38  2  0
 37 39  1  0
 25 40  1  0
  9  4  1  0
 36 31  2  0
 39 17  1  0
 40 19  2  0
M  END
$$$$
