
     RDKit          3D

 40 43  0  0  0  0  0  0  0  0999 V2000
  -11.6674  -34.0455  -10.6325 C   0  0  0  0  0  0  0  0  0  0  0  0
  -12.4515  -34.3066  -11.9261 C   0  0  0  0  0  0  0  0  0  0  0  0
  -11.4782  -33.9689  -13.0565 C   0  0  0  0  0  0  0  0  0  0  0  0
  -12.7526  -35.7603  -11.9345 C   0  0  0  0  0  0  0  0  0  0  0  0
  -11.8816  -36.6372  -12.5547 C   0  0  0  0  0  0  0  0  0  0  0  0
  -12.1404  -37.9851  -12.5741 C   0  0  0  0  0  0  0  0  0  0  0  0
  -13.2739  -38.4912  -11.9756 C   0  0  0  0  0  0  0  0  0  0  0  0
  -14.1480  -37.6552  -11.3589 C   0  0  0  0  0  0  0  0  0  0  0  0
  -13.8760  -36.2984  -11.3459 C   0  0  0  0  0  0  0  0  0  0  0  0
  -15.4104  -38.0951  -10.6640 C   0  0  0  0  0  0  0  0  0  0  0  0
  -16.5166  -37.2826  -11.3129 C   0  0  0  0  0  0  0  0  0  0  0  0
  -15.5908  -39.5506  -10.9937 C   0  0  0  0  0  0  0  0  0  0  0  0
  -15.3382  -37.8879   -9.2556 N   0  0  0  0  0  0  0  0  0  0  0  0
  -15.1322  -39.2057   -8.6241 C   0  0  0  0  0  0  0  0  0  0  0  0
  -16.0212  -39.3847   -7.4514 C   0  0  1  0  0  0  0  0  0  0  0  0
  -16.0201  -38.2850   -6.6254 O   0  0  0  0  0  0  0  0  0  0  0  0
  -17.4586  -39.8128   -7.8447 C   0  0  2  0  0  0  0  0  0  0  0  0
  -18.2601  -39.7240   -6.6563 C   0  0  0  0  0  0  0  0  0  0  0  0
  -19.7167  -39.8552   -6.5338 C   0  0  0  0  0  0  0  0  0  0  0  0
  -20.1410  -39.1991   -5.3384 C   0  0  0  0  0  0  0  0  0  0  0  0
  -21.4146  -39.1950   -4.8639 C   0  0  0  0  0  0  0  0  0  0  0  0
  -21.7734  -38.5530   -3.7198 F   0  0  0  0  0  0  0  0  0  0  0  0
  -22.3220  -39.8864   -5.6220 C   0  0  0  0  0  0  0  0  0  0  0  0
  -23.6770  -39.8859   -5.1287 N   0  0  0  0  0  0  0  0  0  0  0  0
  -21.9680  -40.5612   -6.8198 C   0  0  0  0  0  0  0  0  0  0  0  0
  -23.1562  -41.2985   -7.3561 C   0  0  0  0  0  0  0  0  0  0  0  0
  -23.0453  -42.8065   -7.3010 C   0  0  0  0  0  0  0  0  0  0  0  0
  -23.2459  -43.4222   -5.9722 C   0  0  0  0  0  0  0  0  0  0  0  0
  -22.0314  -43.6115   -5.1325 C   0  0  0  0  0  0  0  0  0  0  0  0
  -21.0536  -44.5481   -5.6815 N   0  0  0  0  0  0  0  0  0  0  0  0
  -20.0574  -44.3364   -6.6900 C   0  0  0  0  0  0  0  0  0  0  0  0
  -20.1437  -45.3847   -7.6453 C   0  0  0  0  0  0  0  0  0  0  0  0
  -19.3813  -45.4355   -8.7754 C   0  0  0  0  0  0  0  0  0  0  0  0
  -18.5122  -44.3942   -8.9383 C   0  0  0  0  0  0  0  0  0  0  0  0
  -18.3734  -43.3110   -8.0226 C   0  0  0  0  0  0  0  0  0  0  0  0
  -19.1639  -43.3114   -6.8896 C   0  0  0  0  0  0  0  0  0  0  0  0
  -17.4184  -42.3253   -8.5511 C   0  0  0  0  0  0  0  0  0  0  0  0
  -16.2882  -42.8541   -9.0610 O   0  0  0  0  0  0  0  0  0  0  0  0
  -17.3486  -40.9394   -8.6848 N   0  0  0  0  0  0  0  0  0  0  0  0
  -20.6729  -40.5375   -7.2679 C   0  0  0  0  0  0  0  0  0  0  0  0
  1  2  1  0
  2  3  1  0
  2  4  1  0
  4  5  2  0
  5  6  1  0
  6  7  2  0
  7  8  1  0
  8  9  2  0
  8 10  1  0
 10 11  1  0
 10 12  1  0
 10 13  1  0
 13 14  1  0
 14 15  1  0
 15 16  1  6
 15 17  1  0
 17 18  1  1
 18 19  1  0
 19 20  1  0
 20 21  2  0
 21 22  1  0
 21 23  1  0
 23 24  1  0
 23 25  2  0
 25 26  1  0
 26 27  1  0
 27 28  1  0
 28 29  1  0
 29 30  1  0
 30 31  1  0
 31 32  1  0
 32 33  2  0
 33 34  1  0
 34 35  2  0
 35 36  1  0
 35 37  1  0
 37 38  2  0
 37 39  1  0
 25 40  1  0
  9  4  1  0
 36 31  2  0
 39 17  1  0
 40 19  2  0
M  END
$$$$
