
     RDKit          3D

 40 43  0  0  0  0  0  0  0  0999 V2000
  -15.3172  -35.0814  -13.3840 C   0  0  0  0  0  0  0  0  0  0  0  0
  -15.1557  -35.5795  -11.9410 C   0  0  0  0  0  0  0  0  0  0  0  0
  -16.4966  -35.2861  -11.2662 C   0  0  0  0  0  0  0  0  0  0  0  0
  -14.9473  -37.0464  -12.0366 C   0  0  0  0  0  0  0  0  0  0  0  0
  -15.4275  -37.7370  -13.1342 C   0  0  0  0  0  0  0  0  0  0  0  0
  -15.2456  -39.0932  -13.2428 C   0  0  0  0  0  0  0  0  0  0  0  0
  -14.5807  -39.7936  -12.2597 C   0  0  0  0  0  0  0  0  0  0  0  0
  -14.0979  -39.1432  -11.1700 C   0  0  0  0  0  0  0  0  0  0  0  0
  -14.2873  -37.7759  -11.0720 C   0  0  0  0  0  0  0  0  0  0  0  0
  -13.3478  -39.8012  -10.0411 C   0  0  0  0  0  0  0  0  0  0  0  0
  -12.8588  -41.1196  -10.6136 C   0  0  0  0  0  0  0  0  0  0  0  0
  -12.1731  -38.9136   -9.7383 C   0  0  0  0  0  0  0  0  0  0  0  0
  -14.1721  -39.9799   -8.8921 N   0  0  0  0  0  0  0  0  0  0  0  0
  -15.0771  -38.8170   -8.8111 C   0  0  0  0  0  0  0  0  0  0  0  0
  -16.0178  -38.9462   -7.6727 C   0  0  1  0  0  0  0  0  0  0  0  0
  -16.1604  -37.7668   -6.9796 O   0  0  0  0  0  0  0  0  0  0  0  0
  -17.3870  -39.5441   -8.0873 C   0  0  2  0  0  0  0  0  0  0  0  0
  -18.3940  -38.8257   -7.3576 C   0  0  0  0  0  0  0  0  0  0  0  0
  -19.8511  -38.8912   -7.5204 C   0  0  0  0  0  0  0  0  0  0  0  0
  -20.4281  -37.6903   -7.0063 C   0  0  0  0  0  0  0  0  0  0  0  0
  -21.7620  -37.4453   -6.9159 C   0  0  0  0  0  0  0  0  0  0  0  0
  -22.2666  -36.2835   -6.4207 F   0  0  0  0  0  0  0  0  0  0  0  0
  -22.5723  -38.4556   -7.3616 C   0  0  0  0  0  0  0  0  0  0  0  0
  -23.9895  -38.2046   -7.2728 N   0  0  0  0  0  0  0  0  0  0  0  0
  -22.0653  -39.6746   -7.8836 C   0  0  0  0  0  0  0  0  0  0  0  0
  -23.1985  -40.6050   -8.1894 C   0  0  0  0  0  0  0  0  0  0  0  0
  -23.2721  -41.8284   -7.3021 C   0  0  0  0  0  0  0  0  0  0  0  0
  -23.8019  -41.6090   -5.9397 C   0  0  0  0  0  0  0  0  0  0  0  0
  -22.8084  -41.2818   -4.8804 C   0  0  0  0  0  0  0  0  0  0  0  0
  -21.8532  -42.3494   -4.5932 N   0  0  0  0  0  0  0  0  0  0  0  0
  -20.6586  -42.7148   -5.2958 C   0  0  0  0  0  0  0  0  0  0  0  0
  -20.6709  -44.1180   -5.5199 C   0  0  0  0  0  0  0  0  0  0  0  0
  -19.7092  -44.7730   -6.2319 C   0  0  0  0  0  0  0  0  0  0  0  0
  -18.7130  -43.9818   -6.7294 C   0  0  0  0  0  0  0  0  0  0  0  0
  -18.6378  -42.5706   -6.5442 C   0  0  0  0  0  0  0  0  0  0  0  0
  -19.6332  -41.9570   -5.8085 C   0  0  0  0  0  0  0  0  0  0  0  0
  -17.4914  -42.0266   -7.2876 C   0  0  0  0  0  0  0  0  0  0  0  0
  -16.3495  -42.7304   -7.1550 O   0  0  0  0  0  0  0  0  0  0  0  0
  -17.2399  -40.9454   -8.1309 N   0  0  0  0  0  0  0  0  0  0  0  0
  -20.7128  -39.8814   -7.9628 C   0  0  0  0  0  0  0  0  0  0  0  0
  1  2  1  0
  2  3  1  0
  2  4  1  0
  4  5  2  0
  5  6  1  0
  6  7  2  0
  7  8  1  0
  8  9  2  0
  8 10  1  0
 10 11  1  0
 10 12  1  0
 10 13  1  0
 13 14  1  0
 14 15  1  0
 15 16  1  6
 15 17  1  0
 17 18  1  1
 18 19  1  0
 19 20  1  0
 20 21  2  0
 21 22  1  0
 21 23  1  0
 23 24  1  0
 23 25  2  0
 25 26  1  0
 26 27  1  0
 27 28  1  0
 28 29  1  0
 29 30  1  0
 30 31  1  0
 31 32  1  0
 32 33  2  0
 33 34  1  0
 34 35  2  0
 35 36  1  0
 35 37  1  0
 37 38  2  0
 37 39  1  0
 25 40  1  0
  9  4  1  0
 36 31  2  0
 39 17  1  0
 40 19  2  0
M  END
$$$$
