
     RDKit          3D

 40 43  0  0  0  0  0  0  0  0999 V2000
  -11.6104  -33.9296  -11.8487 C   0  0  0  0  0  0  0  0  0  0  0  0
  -12.9823  -34.3866  -11.3336 C   0  0  0  0  0  0  0  0  0  0  0  0
  -14.0004  -33.6084  -12.1686 C   0  0  0  0  0  0  0  0  0  0  0  0
  -13.0734  -35.8353  -11.6455 C   0  0  0  0  0  0  0  0  0  0  0  0
  -12.9116  -36.2675  -12.9490 C   0  0  0  0  0  0  0  0  0  0  0  0
  -12.9916  -37.6021  -13.2594 C   0  0  0  0  0  0  0  0  0  0  0  0
  -13.2351  -38.5381  -12.2777 C   0  0  0  0  0  0  0  0  0  0  0  0
  -13.3984  -38.1444  -10.9886 C   0  0  0  0  0  0  0  0  0  0  0  0
  -13.3153  -36.7961  -10.6882 C   0  0  0  0  0  0  0  0  0  0  0  0
  -13.6574  -39.0765   -9.8335 C   0  0  0  0  0  0  0  0  0  0  0  0
  -14.4609  -40.2198  -10.4271 C   0  0  0  0  0  0  0  0  0  0  0  0
  -12.3138  -39.5805   -9.3859 C   0  0  0  0  0  0  0  0  0  0  0  0
  -14.3460  -38.4225   -8.7706 N   0  0  0  0  0  0  0  0  0  0  0  0
  -15.7905  -38.6431   -8.9768 C   0  0  0  0  0  0  0  0  0  0  0  0
  -16.4108  -39.2837   -7.7926 C   0  0  1  0  0  0  0  0  0  0  0  0
  -16.3191  -38.4971   -6.6681 O   0  0  0  0  0  0  0  0  0  0  0  0
  -17.8651  -39.7536   -8.0543 C   0  0  2  0  0  0  0  0  0  0  0  0
  -18.5975  -39.5407   -6.8374 C   0  0  0  0  0  0  0  0  0  0  0  0
  -20.0436  -39.6607   -6.6173 C   0  0  0  0  0  0  0  0  0  0  0  0
  -20.4035  -38.8822   -5.4755 C   0  0  0  0  0  0  0  0  0  0  0  0
  -21.6478  -38.8300   -4.9308 C   0  0  0  0  0  0  0  0  0  0  0  0
  -21.9451  -38.0710   -3.8422 F   0  0  0  0  0  0  0  0  0  0  0  0
  -22.5918  -39.5996   -5.5576 C   0  0  0  0  0  0  0  0  0  0  0  0
  -23.9161  -39.5491   -4.9893 N   0  0  0  0  0  0  0  0  0  0  0  0
  -22.3019  -40.3970   -6.6958 C   0  0  0  0  0  0  0  0  0  0  0  0
  -23.5132  -41.1892   -7.0812 C   0  0  0  0  0  0  0  0  0  0  0  0
  -23.3874  -42.6826   -6.8734 C   0  0  0  0  0  0  0  0  0  0  0  0
  -23.5063  -43.1542   -5.4775 C   0  0  0  0  0  0  0  0  0  0  0  0
  -22.2440  -43.2512   -4.6945 C   0  0  0  0  0  0  0  0  0  0  0  0
  -21.2920  -44.2390   -5.1972 N   0  0  0  0  0  0  0  0  0  0  0  0
  -20.3573  -44.1337   -6.2785 C   0  0  0  0  0  0  0  0  0  0  0  0
  -20.4902  -45.2777   -7.1110 C   0  0  0  0  0  0  0  0  0  0  0  0
  -19.7936  -45.4466   -8.2716 C   0  0  0  0  0  0  0  0  0  0  0  0
  -18.9436  -44.4270   -8.5940 C   0  0  0  0  0  0  0  0  0  0  0  0
  -18.7609  -43.2525   -7.8076 C   0  0  0  0  0  0  0  0  0  0  0  0
  -19.4849  -43.1342   -6.6370 C   0  0  0  0  0  0  0  0  0  0  0  0
  -17.8457  -42.3268   -8.4920 C   0  0  0  0  0  0  0  0  0  0  0  0
  -16.7426  -42.9047   -9.0079 O   0  0  0  0  0  0  0  0  0  0  0  0
  -17.7947  -40.9628   -8.7754 N   0  0  0  0  0  0  0  0  0  0  0  0
  -21.0351  -40.4187   -7.2183 C   0  0  0  0  0  0  0  0  0  0  0  0
  1  2  1  0
  2  3  1  0
  2  4  1  0
  4  5  2  0
  5  6  1  0
  6  7  2  0
  7  8  1  0
  8  9  2  0
  8 10  1  0
 10 11  1  0
 10 12  1  0
 10 13  1  0
 13 14  1  0
 14 15  1  0
 15 16  1  1
 15 17  1  0
 17 18  1  1
 18 19  1  0
 19 20  1  0
 20 21  2  0
 21 22  1  0
 21 23  1  0
 23 24  1  0
 23 25  2  0
 25 26  1  0
 26 27  1  0
 27 28  1  0
 28 29  1  0
 29 30  1  0
 30 31  1  0
 31 32  1  0
 32 33  2  0
 33 34  1  0
 34 35  2  0
 35 36  1  0
 35 37  1  0
 37 38  2  0
 37 39  1  0
 25 40  1  0
  9  4  1  0
 36 31  2  0
 39 17  1  0
 40 19  2  0
M  END
$$$$
