
     RDKit          3D

 40 43  0  0  0  0  0  0  0  0999 V2000
  -14.7355  -32.8399  -12.5369 C   0  0  0  0  0  0  0  0  0  0  0  0
  -15.5174  -33.6346  -11.4818 C   0  0  0  0  0  0  0  0  0  0  0  0
  -16.9371  -33.0675  -11.5275 C   0  0  0  0  0  0  0  0  0  0  0  0
  -15.5196  -35.0433  -11.9507 C   0  0  0  0  0  0  0  0  0  0  0  0
  -16.2209  -35.3846  -13.0926 C   0  0  0  0  0  0  0  0  0  0  0  0
  -16.2361  -36.6808  -13.5439 C   0  0  0  0  0  0  0  0  0  0  0  0
  -15.5526  -37.6680  -12.8676 C   0  0  0  0  0  0  0  0  0  0  0  0
  -14.8550  -37.3637  -11.7432 C   0  0  0  0  0  0  0  0  0  0  0  0
  -14.8471  -36.0534  -11.2983 C   0  0  0  0  0  0  0  0  0  0  0  0
  -14.0639  -38.3552  -10.9302 C   0  0  0  0  0  0  0  0  0  0  0  0
  -14.3289  -39.6982  -11.5868 C   0  0  0  0  0  0  0  0  0  0  0  0
  -12.6170  -37.9848  -11.1007 C   0  0  0  0  0  0  0  0  0  0  0  0
  -14.4452  -38.3367   -9.5569 N   0  0  0  0  0  0  0  0  0  0  0  0
  -15.9147  -38.4618   -9.5036 C   0  0  0  0  0  0  0  0  0  0  0  0
  -16.3608  -39.0080   -8.1998 C   0  0  1  0  0  0  0  0  0  0  0  0
  -16.1954  -38.1064   -7.1743 O   0  0  0  0  0  0  0  0  0  0  0  0
  -17.8030  -39.5753   -8.2457 C   0  0  2  0  0  0  0  0  0  0  0  0
  -18.2080  -39.7961   -6.8856 C   0  0  0  0  0  0  0  0  0  0  0  0
  -19.5386  -40.1586   -6.3837 C   0  0  0  0  0  0  0  0  0  0  0  0
  -19.6370  -39.7710   -5.0128 C   0  0  0  0  0  0  0  0  0  0  0  0
  -20.6994  -40.0304   -4.2058 C   0  0  0  0  0  0  0  0  0  0  0  0
  -20.7500  -39.6388   -2.9043 F   0  0  0  0  0  0  0  0  0  0  0  0
  -21.7261  -40.7186   -4.7960 C   0  0  0  0  0  0  0  0  0  0  0  0
  -22.8596  -40.9965   -3.9490 N   0  0  0  0  0  0  0  0  0  0  0  0
  -21.6934  -41.1344   -6.1530 C   0  0  0  0  0  0  0  0  0  0  0  0
  -22.9143  -41.9440   -6.4644 C   0  0  0  0  0  0  0  0  0  0  0  0
  -22.6515  -43.4085   -6.7395 C   0  0  0  0  0  0  0  0  0  0  0  0
  -22.3783  -44.2506   -5.5557 C   0  0  0  0  0  0  0  0  0  0  0  0
  -20.9532  -44.3898   -5.1485 C   0  0  0  0  0  0  0  0  0  0  0  0
  -20.1068  -45.0724   -6.1243 N   0  0  0  0  0  0  0  0  0  0  0  0
  -19.4905  -44.5583   -7.3118 C   0  0  0  0  0  0  0  0  0  0  0  0
  -19.7661  -45.4423   -8.3896 C   0  0  0  0  0  0  0  0  0  0  0  0
  -19.3839  -45.1995   -9.6764 C   0  0  0  0  0  0  0  0  0  0  0  0
  -18.7074  -44.0289   -9.8716 C   0  0  0  0  0  0  0  0  0  0  0  0
  -18.3974  -43.0968   -8.8389 C   0  0  0  0  0  0  0  0  0  0  0  0
  -18.8005  -43.3942   -7.5514 C   0  0  0  0  0  0  0  0  0  0  0  0
  -17.7459  -41.9095   -9.4125 C   0  0  0  0  0  0  0  0  0  0  0  0
  -16.7812  -42.1778  -10.3149 O   0  0  0  0  0  0  0  0  0  0  0  0
  -17.8500  -40.5251   -9.2863 N   0  0  0  0  0  0  0  0  0  0  0  0
  -20.6052  -40.8488   -6.9358 C   0  0  0  0  0  0  0  0  0  0  0  0
  1  2  1  0
  2  3  1  0
  2  4  1  0
  4  5  2  0
  5  6  1  0
  6  7  2  0
  7  8  1  0
  8  9  2  0
  8 10  1  0
 10 11  1  0
 10 12  1  0
 10 13  1  0
 13 14  1  0
 14 15  1  0
 15 16  1  1
 15 17  1  0
 17 18  1  1
 18 19  1  0
 19 20  1  0
 20 21  2  0
 21 22  1  0
 21 23  1  0
 23 24  1  0
 23 25  2  0
 25 26  1  0
 26 27  1  0
 27 28  1  0
 28 29  1  0
 29 30  1  0
 30 31  1  0
 31 32  1  0
 32 33  2  0
 33 34  1  0
 34 35  2  0
 35 36  1  0
 35 37  1  0
 37 38  2  0
 37 39  1  0
 25 40  1  0
  9  4  1  0
 36 31  2  0
 39 17  1  0
 40 19  2  0
M  END
$$$$
