
     RDKit          3D

 40 43  0  0  0  0  0  0  0  0999 V2000
  -17.3762  -35.6384  -11.3594 C   0  0  0  0  0  0  0  0  0  0  0  0
  -16.2028  -35.1914  -12.2425 C   0  0  0  0  0  0  0  0  0  0  0  0
  -15.4833  -34.1122  -11.4320 C   0  0  0  0  0  0  0  0  0  0  0  0
  -15.3273  -36.3812  -12.3909 C   0  0  0  0  0  0  0  0  0  0  0  0
  -14.6545  -36.5933  -13.5802 C   0  0  0  0  0  0  0  0  0  0  0  0
  -13.8397  -37.6865  -13.7387 C   0  0  0  0  0  0  0  0  0  0  0  0
  -13.6762  -38.5948  -12.7153 C   0  0  0  0  0  0  0  0  0  0  0  0
  -14.3238  -38.4137  -11.5357 C   0  0  0  0  0  0  0  0  0  0  0  0
  -15.1422  -37.3076  -11.3880 C   0  0  0  0  0  0  0  0  0  0  0  0
  -14.2128  -39.3322  -10.3467 C   0  0  0  0  0  0  0  0  0  0  0  0
  -14.0049  -40.7145  -10.9394 C   0  0  0  0  0  0  0  0  0  0  0  0
  -12.9787  -38.9108   -9.5990 C   0  0  0  0  0  0  0  0  0  0  0  0
  -15.3698  -39.2650   -9.5169 N   0  0  0  0  0  0  0  0  0  0  0  0
  -14.9254  -38.8590   -8.1695 C   0  0  0  0  0  0  0  0  0  0  0  0
  -15.6870  -39.5703   -7.1152 C   0  0  1  0  0  0  0  0  0  0  0  0
  -15.6151  -38.9299   -5.9001 O   0  0  0  0  0  0  0  0  0  0  0  0
  -17.1516  -39.8689   -7.5273 C   0  0  2  0  0  0  0  0  0  0  0  0
  -17.9782  -39.5337   -6.4018 C   0  0  0  0  0  0  0  0  0  0  0  0
  -19.4432  -39.4720   -6.3398 C   0  0  0  0  0  0  0  0  0  0  0  0
  -19.8248  -38.6227   -5.2570 C   0  0  0  0  0  0  0  0  0  0  0  0
  -21.1042  -38.4050   -4.8532 C   0  0  0  0  0  0  0  0  0  0  0  0
  -21.4207  -37.5840   -3.8161 F   0  0  0  0  0  0  0  0  0  0  0  0
  -22.0632  -39.0732   -5.5673 C   0  0  0  0  0  0  0  0  0  0  0  0
  -23.4244  -38.8468   -5.1487 N   0  0  0  0  0  0  0  0  0  0  0  0
  -21.7535  -39.9327   -6.6539 C   0  0  0  0  0  0  0  0  0  0  0  0
  -23.0048  -40.5841   -7.1572 C   0  0  0  0  0  0  0  0  0  0  0  0
  -23.0866  -42.0750   -6.9129 C   0  0  0  0  0  0  0  0  0  0  0  0
  -23.4113  -42.4877   -5.5312 C   0  0  0  0  0  0  0  0  0  0  0  0
  -22.2616  -42.7132   -4.6128 C   0  0  0  0  0  0  0  0  0  0  0  0
  -21.3901  -43.8228   -4.9921 N   0  0  0  0  0  0  0  0  0  0  0  0
  -20.3392  -43.8628   -5.9658 C   0  0  0  0  0  0  0  0  0  0  0  0
  -20.5220  -45.0062   -6.7894 C   0  0  0  0  0  0  0  0  0  0  0  0
  -19.7314  -45.2919   -7.8637 C   0  0  0  0  0  0  0  0  0  0  0  0
  -18.7328  -44.3921   -8.1072 C   0  0  0  0  0  0  0  0  0  0  0  0
  -18.4922  -43.2256   -7.3244 C   0  0  0  0  0  0  0  0  0  0  0  0
  -19.3172  -42.9866   -6.2423 C   0  0  0  0  0  0  0  0  0  0  0  0
  -17.4022  -42.4374   -7.9190 C   0  0  0  0  0  0  0  0  0  0  0  0
  -16.3297  -43.1589   -8.3013 O   0  0  0  0  0  0  0  0  0  0  0  0
  -17.1537  -41.0984   -8.2169 N   0  0  0  0  0  0  0  0  0  0  0  0
  -20.4504  -40.1222   -7.0338 C   0  0  0  0  0  0  0  0  0  0  0  0
  1  2  1  0
  2  3  1  0
  2  4  1  0
  4  5  2  0
  5  6  1  0
  6  7  2  0
  7  8  1  0
  8  9  2  0
  8 10  1  0
 10 11  1  0
 10 12  1  0
 10 13  1  0
 13 14  1  0
 14 15  1  0
 15 16  1  1
 15 17  1  0
 17 18  1  1
 18 19  1  0
 19 20  1  0
 20 21  2  0
 21 22  1  0
 21 23  1  0
 23 24  1  0
 23 25  2  0
 25 26  1  0
 26 27  1  0
 27 28  1  0
 28 29  1  0
 29 30  1  0
 30 31  1  0
 31 32  1  0
 32 33  2  0
 33 34  1  0
 34 35  2  0
 35 36  1  0
 35 37  1  0
 37 38  2  0
 37 39  1  0
 25 40  1  0
  9  4  1  0
 36 31  2  0
 39 17  1  0
 40 19  2  0
M  END
$$$$
