
     RDKit          3D

 40 43  0  0  0  0  0  0  0  0999 V2000
  -14.6702  -34.3372  -13.8379 C   0  0  0  0  0  0  0  0  0  0  0  0
  -13.7405  -35.1328  -12.9111 C   0  0  0  0  0  0  0  0  0  0  0  0
  -13.6703  -34.3152  -11.6203 C   0  0  0  0  0  0  0  0  0  0  0  0
  -14.4266  -36.4244  -12.6555 C   0  0  0  0  0  0  0  0  0  0  0  0
  -15.7078  -36.6267  -13.1348 C   0  0  0  0  0  0  0  0  0  0  0  0
  -16.3604  -37.8132  -12.9102 C   0  0  0  0  0  0  0  0  0  0  0  0
  -15.7513  -38.8266  -12.2023 C   0  0  0  0  0  0  0  0  0  0  0  0
  -14.4938  -38.6577  -11.7190 C   0  0  0  0  0  0  0  0  0  0  0  0
  -13.8462  -37.4571  -11.9521 C   0  0  0  0  0  0  0  0  0  0  0  0
  -13.7266  -39.6965  -10.9430 C   0  0  0  0  0  0  0  0  0  0  0  0
  -14.0032  -41.0044  -11.6626 C   0  0  0  0  0  0  0  0  0  0  0  0
  -12.2726  -39.3403  -11.0805 C   0  0  0  0  0  0  0  0  0  0  0  0
  -14.1237  -39.7343   -9.5746 N   0  0  0  0  0  0  0  0  0  0  0  0
  -15.5119  -39.2389   -9.5025 C   0  0  0  0  0  0  0  0  0  0  0  0
  -16.0820  -39.4321   -8.1478 C   0  0  1  0  0  0  0  0  0  0  0  0
  -15.8944  -38.3325   -7.3431 O   0  0  0  0  0  0  0  0  0  0  0  0
  -17.5652  -39.8829   -8.1767 C   0  0  2  0  0  0  0  0  0  0  0  0
  -18.0684  -39.7478   -6.8384 C   0  0  0  0  0  0  0  0  0  0  0  0
  -19.4542  -39.8803   -6.3736 C   0  0  0  0  0  0  0  0  0  0  0  0
  -19.5971  -39.1764   -5.1394 C   0  0  0  0  0  0  0  0  0  0  0  0
  -20.7247  -39.1581   -4.3808 C   0  0  0  0  0  0  0  0  0  0  0  0
  -20.8157  -38.4702   -3.2111 F   0  0  0  0  0  0  0  0  0  0  0  0
  -21.7740  -39.8850   -4.8776 C   0  0  0  0  0  0  0  0  0  0  0  0
  -22.9764  -39.8699   -4.0816 N   0  0  0  0  0  0  0  0  0  0  0  0
  -21.6997  -40.6081   -6.0970 C   0  0  0  0  0  0  0  0  0  0  0  0
  -22.9696  -41.3727   -6.3109 C   0  0  0  0  0  0  0  0  0  0  0  0
  -22.8274  -42.8765   -6.2231 C   0  0  0  0  0  0  0  0  0  0  0  0
  -22.7035  -43.4366   -4.8608 C   0  0  0  0  0  0  0  0  0  0  0  0
  -21.3240  -43.5848   -4.3214 C   0  0  0  0  0  0  0  0  0  0  0  0
  -20.4880  -44.5392   -5.0460 N   0  0  0  0  0  0  0  0  0  0  0  0
  -19.7578  -44.3656   -6.2670 C   0  0  0  0  0  0  0  0  0  0  0  0
  -20.0498  -45.4537   -7.1331 C   0  0  0  0  0  0  0  0  0  0  0  0
  -19.5715  -45.5485   -8.4071 C   0  0  0  0  0  0  0  0  0  0  0  0
  -18.7794  -44.5110   -8.8101 C   0  0  0  0  0  0  0  0  0  0  0  0
  -18.4461  -43.3896   -7.9961 C   0  0  0  0  0  0  0  0  0  0  0  0
  -18.9503  -43.3459   -6.7106 C   0  0  0  0  0  0  0  0  0  0  0  0
  -17.6550  -42.4227   -8.7722 C   0  0  0  0  0  0  0  0  0  0  0  0
  -16.6676  -42.9673   -9.5106 O   0  0  0  0  0  0  0  0  0  0  0  0
  -17.6382  -41.0434   -8.9737 N   0  0  0  0  0  0  0  0  0  0  0  0
  -20.5455  -40.5973   -6.8360 C   0  0  0  0  0  0  0  0  0  0  0  0
  1  2  1  0
  2  3  1  0
  2  4  1  0
  4  5  2  0
  5  6  1  0
  6  7  2  0
  7  8  1  0
  8  9  2  0
  8 10  1  0
 10 11  1  0
 10 12  1  0
 10 13  1  0
 13 14  1  0
 14 15  1  0
 15 16  1  1
 15 17  1  0
 17 18  1  1
 18 19  1  0
 19 20  1  0
 20 21  2  0
 21 22  1  0
 21 23  1  0
 23 24  1  0
 23 25  2  0
 25 26  1  0
 26 27  1  0
 27 28  1  0
 28 29  1  0
 29 30  1  0
 30 31  1  0
 31 32  1  0
 32 33  2  0
 33 34  1  0
 34 35  2  0
 35 36  1  0
 35 37  1  0
 37 38  2  0
 37 39  1  0
 25 40  1  0
  9  4  1  0
 36 31  2  0
 39 17  1  0
 40 19  2  0
M  END
$$$$
