
     RDKit          3D

 40 43  0  0  0  0  0  0  0  0999 V2000
  -12.2193  -34.5126  -11.5810 C   0  0  0  0  0  0  0  0  0  0  0  0
  -13.5605  -35.0615  -12.0873 C   0  0  0  0  0  0  0  0  0  0  0  0
  -13.7835  -34.3826  -13.4396 C   0  0  0  0  0  0  0  0  0  0  0  0
  -13.3581  -36.5196  -12.2802 C   0  0  0  0  0  0  0  0  0  0  0  0
  -12.5921  -36.9713  -13.3392 C   0  0  0  0  0  0  0  0  0  0  0  0
  -12.3919  -38.3149  -13.5359 C   0  0  0  0  0  0  0  0  0  0  0  0
  -12.9506  -39.2407  -12.6815 C   0  0  0  0  0  0  0  0  0  0  0  0
  -13.7076  -38.8278  -11.6327 C   0  0  0  0  0  0  0  0  0  0  0  0
  -13.9020  -37.4706  -11.4448 C   0  0  0  0  0  0  0  0  0  0  0  0
  -14.3575  -39.7458  -10.6303 C   0  0  0  0  0  0  0  0  0  0  0  0
  -14.6553  -41.0187  -11.4024 C   0  0  0  0  0  0  0  0  0  0  0  0
  -13.3224  -40.0233   -9.5761 C   0  0  0  0  0  0  0  0  0  0  0  0
  -15.5304  -39.1658  -10.0649 N   0  0  0  0  0  0  0  0  0  0  0  0
  -15.1718  -38.6561   -8.7273 C   0  0  0  0  0  0  0  0  0  0  0  0
  -15.9062  -39.3791   -7.6618 C   0  0  1  0  0  0  0  0  0  0  0  0
  -15.8922  -38.6983   -6.4668 O   0  0  0  0  0  0  0  0  0  0  0  0
  -17.3436  -39.7780   -8.0848 C   0  0  2  0  0  0  0  0  0  0  0  0
  -18.2110  -39.4303   -6.9943 C   0  0  0  0  0  0  0  0  0  0  0  0
  -19.6782  -39.4454   -6.9631 C   0  0  0  0  0  0  0  0  0  0  0  0
  -20.1278  -38.5631   -5.9342 C   0  0  0  0  0  0  0  0  0  0  0  0
  -21.4254  -38.3947   -5.5664 C   0  0  0  0  0  0  0  0  0  0  0  0
  -21.8075  -37.5396   -4.5804 F   0  0  0  0  0  0  0  0  0  0  0  0
  -22.3317  -39.1503   -6.2620 C   0  0  0  0  0  0  0  0  0  0  0  0
  -23.7118  -38.9770   -5.8815 N   0  0  0  0  0  0  0  0  0  0  0  0
  -21.9533  -40.0470   -7.2955 C   0  0  0  0  0  0  0  0  0  0  0  0
  -23.1569  -40.7907   -7.7869 C   0  0  0  0  0  0  0  0  0  0  0  0
  -23.1642  -42.2692   -7.4656 C   0  0  0  0  0  0  0  0  0  0  0  0
  -23.4961  -42.6267   -6.0702 C   0  0  0  0  0  0  0  0  0  0  0  0
  -22.3560  -42.7413   -5.1199 C   0  0  0  0  0  0  0  0  0  0  0  0
  -21.4185  -43.8200   -5.4235 N   0  0  0  0  0  0  0  0  0  0  0  0
  -20.3462  -43.8531   -6.3739 C   0  0  0  0  0  0  0  0  0  0  0  0
  -20.4499  -45.0460   -7.1390 C   0  0  0  0  0  0  0  0  0  0  0  0
  -19.6222  -45.3436   -8.1818 C   0  0  0  0  0  0  0  0  0  0  0  0
  -18.6682  -44.4045   -8.4538 C   0  0  0  0  0  0  0  0  0  0  0  0
  -18.5070  -43.1877   -7.7295 C   0  0  0  0  0  0  0  0  0  0  0  0
  -19.3667  -42.9381   -6.6773 C   0  0  0  0  0  0  0  0  0  0  0  0
  -17.4481  -42.3732   -8.3445 C   0  0  0  0  0  0  0  0  0  0  0  0
  -16.3307  -43.0541   -8.6680 O   0  0  0  0  0  0  0  0  0  0  0  0
  -17.2652  -41.0399   -8.7083 N   0  0  0  0  0  0  0  0  0  0  0  0
  -20.6340  -40.1847   -7.6404 C   0  0  0  0  0  0  0  0  0  0  0  0
  1  2  1  0
  2  3  1  0
  2  4  1  0
  4  5  2  0
  5  6  1  0
  6  7  2  0
  7  8  1  0
  8  9  2  0
  8 10  1  0
 10 11  1  0
 10 12  1  0
 10 13  1  0
 13 14  1  0
 14 15  1  0
 15 16  1  1
 15 17  1  0
 17 18  1  1
 18 19  1  0
 19 20  1  0
 20 21  2  0
 21 22  1  0
 21 23  1  0
 23 24  1  0
 23 25  2  0
 25 26  1  0
 26 27  1  0
 27 28  1  0
 28 29  1  0
 29 30  1  0
 30 31  1  0
 31 32  1  0
 32 33  2  0
 33 34  1  0
 34 35  2  0
 35 36  1  0
 35 37  1  0
 37 38  2  0
 37 39  1  0
 25 40  1  0
  9  4  1  0
 36 31  2  0
 39 17  1  0
 40 19  2  0
M  END
$$$$
