
     RDKit          3D

 40 43  0  0  0  0  0  0  0  0999 V2000
  -12.5788  -34.8443  -13.1948 C   0  0  0  0  0  0  0  0  0  0  0  0
  -12.5003  -35.9265  -14.2806 C   0  0  0  0  0  0  0  0  0  0  0  0
  -11.0198  -36.3018  -14.3622 C   0  0  0  0  0  0  0  0  0  0  0  0
  -13.2866  -37.0768  -13.7679 C   0  0  0  0  0  0  0  0  0  0  0  0
  -13.9776  -37.8838  -14.6531 C   0  0  0  0  0  0  0  0  0  0  0  0
  -14.7105  -38.9525  -14.2007 C   0  0  0  0  0  0  0  0  0  0  0  0
  -14.7723  -39.2425  -12.8549 C   0  0  0  0  0  0  0  0  0  0  0  0
  -14.1045  -38.4684  -11.9614 C   0  0  0  0  0  0  0  0  0  0  0  0
  -13.3689  -37.3939  -12.4297 C   0  0  0  0  0  0  0  0  0  0  0  0
  -14.0905  -38.6955  -10.4721 C   0  0  0  0  0  0  0  0  0  0  0  0
  -13.2168  -39.9210  -10.2724 C   0  0  0  0  0  0  0  0  0  0  0  0
  -13.4224  -37.4930   -9.8660 C   0  0  0  0  0  0  0  0  0  0  0  0
  -15.4055  -38.8747   -9.9522 N   0  0  0  0  0  0  0  0  0  0  0  0
  -15.4866  -38.1240   -8.6843 C   0  0  0  0  0  0  0  0  0  0  0  0
  -16.1016  -38.9433   -7.6128 C   0  0  1  0  0  0  0  0  0  0  0  0
  -16.1764  -38.2657   -6.4183 O   0  0  0  0  0  0  0  0  0  0  0  0
  -17.4700  -39.5450   -8.0245 C   0  0  2  0  0  0  0  0  0  0  0  0
  -18.4014  -39.2145   -6.9825 C   0  0  0  0  0  0  0  0  0  0  0  0
  -19.8570  -39.4025   -6.9751 C   0  0  0  0  0  0  0  0  0  0  0  0
  -20.4350  -38.4982   -6.0330 C   0  0  0  0  0  0  0  0  0  0  0  0
  -21.7528  -38.4565   -5.7030 C   0  0  0  0  0  0  0  0  0  0  0  0
  -22.2596  -37.5745   -4.8002 F   0  0  0  0  0  0  0  0  0  0  0  0
  -22.5447  -39.3701   -6.3467 C   0  0  0  0  0  0  0  0  0  0  0  0
  -23.9454  -39.3322   -6.0059 N   0  0  0  0  0  0  0  0  0  0  0  0
  -22.0355  -40.2974   -7.2934 C   0  0  0  0  0  0  0  0  0  0  0  0
  -23.1294  -41.2179   -7.7399 C   0  0  0  0  0  0  0  0  0  0  0  0
  -22.9711  -42.6550   -7.2936 C   0  0  0  0  0  0  0  0  0  0  0  0
  -23.2961  -42.9329   -5.8786 C   0  0  0  0  0  0  0  0  0  0  0  0
  -22.1765  -42.8312   -4.9028 C   0  0  0  0  0  0  0  0  0  0  0  0
  -21.1106  -43.8114   -5.0973 N   0  0  0  0  0  0  0  0  0  0  0  0
  -20.0167  -43.7945   -6.0231 C   0  0  0  0  0  0  0  0  0  0  0  0
  -19.9584  -45.0504   -6.6852 C   0  0  0  0  0  0  0  0  0  0  0  0
  -19.0736  -45.3320   -7.6845 C   0  0  0  0  0  0  0  0  0  0  0  0
  -18.2298  -44.3113   -8.0196 C   0  0  0  0  0  0  0  0  0  0  0  0
  -18.2328  -43.0282   -7.3992 C   0  0  0  0  0  0  0  0  0  0  0  0
  -19.1440  -42.7971   -6.3868 C   0  0  0  0  0  0  0  0  0  0  0  0
  -17.2610  -42.1465   -8.0635 C   0  0  0  0  0  0  0  0  0  0  0  0
  -16.0628  -42.7132   -8.3086 O   0  0  0  0  0  0  0  0  0  0  0  0
  -17.2267  -40.8356   -8.5365 N   0  0  0  0  0  0  0  0  0  0  0  0
  -20.7004  -40.3043   -7.6029 C   0  0  0  0  0  0  0  0  0  0  0  0
  1  2  1  0
  2  3  1  0
  2  4  1  0
  4  5  2  0
  5  6  1  0
  6  7  2  0
  7  8  1  0
  8  9  2  0
  8 10  1  0
 10 11  1  0
 10 12  1  0
 10 13  1  0
 13 14  1  0
 14 15  1  0
 15 16  1  1
 15 17  1  0
 17 18  1  1
 18 19  1  0
 19 20  1  0
 20 21  2  0
 21 22  1  0
 21 23  1  0
 23 24  1  0
 23 25  2  0
 25 26  1  0
 26 27  1  0
 27 28  1  0
 28 29  1  0
 29 30  1  0
 30 31  1  0
 31 32  1  0
 32 33  2  0
 33 34  1  0
 34 35  2  0
 35 36  1  0
 35 37  1  0
 37 38  2  0
 37 39  1  0
 25 40  1  0
  9  4  1  0
 36 31  2  0
 39 17  1  0
 40 19  2  0
M  END
$$$$
