
     RDKit          3D

 40 43  0  0  0  0  0  0  0  0999 V2000
  -12.4399  -35.5540  -10.5155 C   0  0  0  0  0  0  0  0  0  0  0  0
  -13.0258  -35.6952  -11.8997 C   0  0  0  0  0  0  0  0  0  0  0  0
  -12.0124  -36.3416  -12.8484 C   0  0  0  0  0  0  0  0  0  0  0  0
  -13.2626  -34.2863  -12.4290 C   0  0  0  0  0  0  0  0  0  0  0  0
  -14.3240  -36.4531  -11.9357 C   0  0  0  0  0  0  0  0  0  0  0  0
  -14.1725  -37.8714  -11.4636 C   0  0  0  0  0  0  0  0  0  0  0  0
  -14.6762  -38.4168  -10.3076 C   0  0  0  0  0  0  0  0  0  0  0  0
  -14.2958  -39.7740  -10.2566 C   0  0  0  0  0  0  0  0  0  0  0  0
  -13.5965  -39.9425  -11.3808 N   0  0  0  0  0  0  0  0  0  0  0  0
  -13.5342  -38.8432  -12.0622 O   0  0  0  0  0  0  0  0  0  0  0  0
  -14.6512  -40.6702   -9.1559 C   0  0  0  0  0  0  0  0  0  0  0  0
  -14.1691  -42.0624   -9.5365 C   0  0  0  0  0  0  0  0  0  0  0  0
  -13.8280  -40.3113   -7.9037 C   0  0  0  0  0  0  0  0  0  0  0  0
  -16.0164  -40.6782   -8.7185 N   0  0  0  0  0  0  0  0  0  0  0  0
  -16.6198  -39.3790   -8.6613 C   0  0  0  0  0  0  0  0  0  0  0  0
  -17.7876  -39.1930   -7.7983 C   0  0  1  0  0  0  0  0  0  0  0  0
  -18.7404  -38.4140   -8.5392 O   0  0  0  0  0  0  0  0  0  0  0  0
  -18.5705  -40.3589   -7.3156 C   0  0  2  0  0  0  0  0  0  0  0  0
  -19.3381  -40.1338   -6.0318 C   0  0  0  0  0  0  0  0  0  0  0  0
  -20.6909  -39.5772   -6.3123 C   0  0  0  0  0  0  0  0  0  0  0  0
  -21.8707  -40.2021   -6.6286 C   0  0  0  0  0  0  0  0  0  0  0  0
  -22.9735  -39.4249   -6.9403 C   0  0  0  0  0  0  0  0  0  0  0  0
  -22.8768  -38.0233   -6.9224 C   0  0  0  0  0  0  0  0  0  0  0  0
  -21.7188  -37.3627   -6.6082 C   0  0  0  0  0  0  0  0  0  0  0  0
  -20.6490  -38.1652   -6.3103 C   0  0  0  0  0  0  0  0  0  0  0  0
  -24.2533  -39.8190   -7.2979 O   0  0  0  0  0  0  0  0  0  0  0  0
  -24.7960  -40.5782   -8.3466 C   0  0  0  0  0  0  0  0  0  0  0  0
  -23.6856  -41.0534   -9.2370 C   0  0  0  0  0  0  0  0  0  0  0  0
  -23.8847  -42.4660   -9.7200 C   0  0  0  0  0  0  0  0  0  0  0  0
  -24.0911  -43.4696   -8.6587 C   0  0  0  0  0  0  0  0  0  0  0  0
  -23.0424  -44.2849   -8.2896 O   0  0  0  0  0  0  0  0  0  0  0  0
  -21.8387  -44.2139   -7.6228 C   0  0  0  0  0  0  0  0  0  0  0  0
  -20.7172  -43.4534   -7.9265 C   0  0  0  0  0  0  0  0  0  0  0  0
  -19.6321  -43.5628   -7.0818 C   0  0  0  0  0  0  0  0  0  0  0  0
  -19.7176  -44.4364   -5.9662 C   0  0  0  0  0  0  0  0  0  0  0  0
  -20.7914  -45.1703   -5.6737 N   0  0  0  0  0  0  0  0  0  0  0  0
  -21.8306  -45.0597   -6.4883 C   0  0  0  0  0  0  0  0  0  0  0  0
  -18.3177  -42.9059   -7.0874 C   0  0  0  0  0  0  0  0  0  0  0  0
  -17.3133  -43.6389   -6.6921 O   0  0  0  0  0  0  0  0  0  0  0  0
  -17.8959  -41.6088   -7.4399 N   0  0  0  0  0  0  0  0  0  0  0  0
  1  2  1  0
  2  3  1  0
  2  4  1  0
  2  5  1  0
  5  6  1  0
  6  7  2  0
  7  8  1  0
  8  9  2  0
  9 10  1  0
  8 11  1  0
 11 12  1  0
 11 13  1  0
 11 14  1  0
 14 15  1  0
 15 16  1  0
 16 17  1  6
 16 18  1  0
 18 19  1  1
 19 20  1  0
 20 21  2  0
 21 22  1  0
 22 23  2  0
 23 24  1  0
 24 25  2  0
 22 26  1  0
 26 27  1  0
 27 28  1  0
 28 29  1  0
 29 30  1  0
 30 31  1  0
 31 32  1  0
 32 33  2  0
 33 34  1  0
 34 35  2  0
 35 36  1  0
 36 37  2  0
 34 38  1  0
 38 39  2  0
 38 40  1  0
 10  6  1  0
 25 20  1  0
 37 32  1  0
 40 18  1  0
M  END
$$$$
