
     RDKit          3D

 40 43  0  0  0  0  0  0  0  0999 V2000
   -9.6423  -40.4059  -11.6172 C   0  0  0  0  0  0  0  0  0  0  0  0
  -10.2024  -41.6602  -12.2435 C   0  0  0  0  0  0  0  0  0  0  0  0
  -10.1875  -42.8152  -11.2382 C   0  0  0  0  0  0  0  0  0  0  0  0
   -9.2512  -42.0615  -13.3639 C   0  0  0  0  0  0  0  0  0  0  0  0
  -11.5829  -41.4899  -12.8148 C   0  0  0  0  0  0  0  0  0  0  0  0
  -12.4901  -40.7171  -11.8998 C   0  0  0  0  0  0  0  0  0  0  0  0
  -12.8827  -39.4077  -12.0366 C   0  0  0  0  0  0  0  0  0  0  0  0
  -13.7305  -39.0851  -10.9565 C   0  0  0  0  0  0  0  0  0  0  0  0
  -13.7849  -40.2194  -10.2554 N   0  0  0  0  0  0  0  0  0  0  0  0
  -13.0688  -41.1459  -10.8082 O   0  0  0  0  0  0  0  0  0  0  0  0
  -14.3334  -37.7648  -10.7710 C   0  0  0  0  0  0  0  0  0  0  0  0
  -13.8085  -37.2122   -9.4539 C   0  0  0  0  0  0  0  0  0  0  0  0
  -13.7933  -36.7900  -11.8351 C   0  0  0  0  0  0  0  0  0  0  0  0
  -15.7607  -37.6664  -10.8612 N   0  0  0  0  0  0  0  0  0  0  0  0
  -16.4079  -37.3905   -9.6122 C   0  0  0  0  0  0  0  0  0  0  0  0
  -17.8082  -37.7869   -9.4530 C   0  0  1  0  0  0  0  0  0  0  0  0
  -18.3549  -37.9450  -10.7720 O   0  0  0  0  0  0  0  0  0  0  0  0
  -18.1674  -39.0495   -8.7586 C   0  0  2  0  0  0  0  0  0  0  0  0
  -18.6776  -38.8851   -7.3441 C   0  0  0  0  0  0  0  0  0  0  0  0
  -20.1523  -38.6766   -7.3322 C   0  0  0  0  0  0  0  0  0  0  0  0
  -21.1865  -39.5782   -7.3468 C   0  0  0  0  0  0  0  0  0  0  0  0
  -22.4841  -39.1023   -7.4309 C   0  0  0  0  0  0  0  0  0  0  0  0
  -22.7260  -37.7196   -7.4919 C   0  0  0  0  0  0  0  0  0  0  0  0
  -21.7215  -36.7885   -7.4759 C   0  0  0  0  0  0  0  0  0  0  0  0
  -20.4521  -37.2976   -7.3966 C   0  0  0  0  0  0  0  0  0  0  0  0
  -23.6772  -39.8064   -7.4722 O   0  0  0  0  0  0  0  0  0  0  0  0
  -24.2301  -40.7625   -8.3387 C   0  0  0  0  0  0  0  0  0  0  0  0
  -23.2519  -41.0555   -9.4382 C   0  0  0  0  0  0  0  0  0  0  0  0
  -23.2026  -42.5152   -9.8060 C   0  0  0  0  0  0  0  0  0  0  0  0
  -22.9324  -43.4365   -8.6860 C   0  0  0  0  0  0  0  0  0  0  0  0
  -21.6648  -43.9562   -8.5322 O   0  0  0  0  0  0  0  0  0  0  0  0
  -20.4008  -43.5539   -8.1596 C   0  0  0  0  0  0  0  0  0  0  0  0
  -19.5854  -42.5914   -8.7406 C   0  0  0  0  0  0  0  0  0  0  0  0
  -18.3527  -42.3743   -8.1607 C   0  0  0  0  0  0  0  0  0  0  0  0
  -17.9879  -43.1373   -7.0206 C   0  0  0  0  0  0  0  0  0  0  0  0
  -18.7668  -44.0641   -6.4625 N   0  0  0  0  0  0  0  0  0  0  0  0
  -19.9500  -44.2669   -7.0235 C   0  0  0  0  0  0  0  0  0  0  0  0
  -17.2668  -41.4412   -8.4912 C   0  0  0  0  0  0  0  0  0  0  0  0
  -16.0554  -41.8888   -8.3052 O   0  0  0  0  0  0  0  0  0  0  0  0
  -17.2537  -40.1208   -8.9823 N   0  0  0  0  0  0  0  0  0  0  0  0
  1  2  1  0
  2  3  1  0
  2  4  1  0
  2  5  1  0
  5  6  1  0
  6  7  2  0
  7  8  1  0
  8  9  2  0
  9 10  1  0
  8 11  1  0
 11 12  1  0
 11 13  1  0
 11 14  1  0
 14 15  1  0
 15 16  1  0
 16 17  1  6
 16 18  1  0
 18 19  1  1
 19 20  1  0
 20 21  2  0
 21 22  1  0
 22 23  2  0
 23 24  1  0
 24 25  2  0
 22 26  1  0
 26 27  1  0
 27 28  1  0
 28 29  1  0
 29 30  1  0
 30 31  1  0
 31 32  1  0
 32 33  2  0
 33 34  1  0
 34 35  2  0
 35 36  1  0
 36 37  2  0
 34 38  1  0
 38 39  2  0
 38 40  1  0
 10  6  1  0
 25 20  1  0
 37 32  1  0
 40 18  1  0
M  END
$$$$
