
     RDKit          3D

 40 43  0  0  0  0  0  0  0  0999 V2000
  -20.6335  -33.2482  -12.1999 C   0  0  0  0  0  0  0  0  0  0  0  0
  -19.5128  -34.1959  -11.8459 C   0  0  0  0  0  0  0  0  0  0  0  0
  -18.8254  -33.7548  -10.5507 C   0  0  0  0  0  0  0  0  0  0  0  0
  -18.4640  -34.0754  -12.9444 C   0  0  0  0  0  0  0  0  0  0  0  0
  -19.9430  -35.6328  -11.7393 C   0  0  0  0  0  0  0  0  0  0  0  0
  -19.0587  -36.4290  -10.8220 C   0  0  0  0  0  0  0  0  0  0  0  0
  -19.2259  -36.6204   -9.4719 C   0  0  0  0  0  0  0  0  0  0  0  0
  -18.1674  -37.4272   -9.0051 C   0  0  0  0  0  0  0  0  0  0  0  0
  -17.4473  -37.6605  -10.1044 N   0  0  0  0  0  0  0  0  0  0  0  0
  -17.9703  -37.0817  -11.1379 O   0  0  0  0  0  0  0  0  0  0  0  0
  -18.0165  -37.8299   -7.6066 C   0  0  0  0  0  0  0  0  0  0  0  0
  -19.1140  -37.1314   -6.8171 C   0  0  0  0  0  0  0  0  0  0  0  0
  -18.3361  -39.3299   -7.4575 C   0  0  0  0  0  0  0  0  0  0  0  0
  -16.7292  -37.6579   -6.9996 N   0  0  0  0  0  0  0  0  0  0  0  0
  -16.0899  -38.8856   -6.6266 C   0  0  0  0  0  0  0  0  0  0  0  0
  -15.8328  -39.8798   -7.6699 C   0  0  1  0  0  0  0  0  0  0  0  0
  -14.8310  -40.7754   -7.1623 O   0  0  0  0  0  0  0  0  0  0  0  0
  -16.9141  -40.7790   -8.1470 C   0  0  2  0  0  0  0  0  0  0  0  0
  -16.7498  -41.2921   -9.5605 C   0  0  0  0  0  0  0  0  0  0  0  0
  -15.9502  -42.5486   -9.5800 C   0  0  0  0  0  0  0  0  0  0  0  0
  -16.3280  -43.8557   -9.4033 C   0  0  0  0  0  0  0  0  0  0  0  0
  -15.3486  -44.8341   -9.3740 C   0  0  0  0  0  0  0  0  0  0  0  0
  -13.9969  -44.4843   -9.5309 C   0  0  0  0  0  0  0  0  0  0  0  0
  -13.5804  -43.1922   -9.7132 C   0  0  0  0  0  0  0  0  0  0  0  0
  -14.5774  -42.2526   -9.7319 C   0  0  0  0  0  0  0  0  0  0  0  0
  -15.4791  -46.2029   -9.1997 O   0  0  0  0  0  0  0  0  0  0  0  0
  -15.9882  -47.0247   -8.1819 C   0  0  0  0  0  0  0  0  0  0  0  0
  -16.5064  -46.1647   -7.0668 C   0  0  0  0  0  0  0  0  0  0  0  0
  -17.7878  -46.6858   -6.4710 C   0  0  0  0  0  0  0  0  0  0  0  0
  -18.8832  -46.9085   -7.4336 C   0  0  0  0  0  0  0  0  0  0  0  0
  -19.8992  -45.9810   -7.5242 O   0  0  0  0  0  0  0  0  0  0  0  0
  -20.1153  -44.6982   -7.9783 C   0  0  0  0  0  0  0  0  0  0  0  0
  -19.5094  -43.5162   -7.5731 C   0  0  0  0  0  0  0  0  0  0  0  0
  -19.9076  -42.3545   -8.2016 C   0  0  0  0  0  0  0  0  0  0  0  0
  -20.9029  -42.4282   -9.2111 C   0  0  0  0  0  0  0  0  0  0  0  0
  -21.4889  -43.5607   -9.6001 N   0  0  0  0  0  0  0  0  0  0  0  0
  -21.1010  -44.6730   -8.9933 C   0  0  0  0  0  0  0  0  0  0  0  0
  -19.4753  -40.9591   -8.0437 C   0  0  0  0  0  0  0  0  0  0  0  0
  -20.4074  -40.0558   -8.1766 O   0  0  0  0  0  0  0  0  0  0  0  0
  -18.2262  -40.3676   -7.7706 N   0  0  0  0  0  0  0  0  0  0  0  0
  1  2  1  0
  2  3  1  0
  2  4  1  0
  2  5  1  0
  5  6  1  0
  6  7  2  0
  7  8  1  0
  8  9  2  0
  9 10  1  0
  8 11  1  0
 11 12  1  0
 11 13  1  0
 11 14  1  0
 14 15  1  0
 15 16  1  0
 16 17  1  1
 16 18  1  0
 18 19  1  6
 19 20  1  0
 20 21  2  0
 21 22  1  0
 22 23  2  0
 23 24  1  0
 24 25  2  0
 22 26  1  0
 26 27  1  0
 27 28  1  0
 28 29  1  0
 29 30  1  0
 30 31  1  0
 31 32  1  0
 32 33  2  0
 33 34  1  0
 34 35  2  0
 35 36  1  0
 36 37  2  0
 34 38  1  0
 38 39  2  0
 38 40  1  0
 10  6  1  0
 25 20  1  0
 37 32  1  0
 40 18  1  0
M  END
$$$$
