
     RDKit          3D

 40 43  0  0  0  0  0  0  0  0999 V2000
  -14.3375  -34.4464  -13.1212 C   0  0  0  0  0  0  0  0  0  0  0  0
  -14.2665  -35.9471  -13.2705 C   0  0  0  0  0  0  0  0  0  0  0  0
  -14.3631  -36.3451  -14.7460 C   0  0  0  0  0  0  0  0  0  0  0  0
  -15.5056  -36.5209  -12.5949 C   0  0  0  0  0  0  0  0  0  0  0  0
  -13.0438  -36.5625  -12.6481 C   0  0  0  0  0  0  0  0  0  0  0  0
  -13.3315  -37.1790  -11.3086 C   0  0  0  0  0  0  0  0  0  0  0  0
  -13.2512  -38.5095  -10.9758 C   0  0  0  0  0  0  0  0  0  0  0  0
  -13.6092  -38.6484   -9.6186 C   0  0  0  0  0  0  0  0  0  0  0  0
  -13.8754  -37.3970   -9.2386 N   0  0  0  0  0  0  0  0  0  0  0  0
  -13.7121  -36.5658  -10.2179 O   0  0  0  0  0  0  0  0  0  0  0  0
  -13.6447  -39.9343   -8.9215 C   0  0  0  0  0  0  0  0  0  0  0  0
  -14.0379  -40.9895   -9.9450 C   0  0  0  0  0  0  0  0  0  0  0  0
  -12.2204  -40.3342   -8.4904 C   0  0  0  0  0  0  0  0  0  0  0  0
  -14.4369  -40.0239   -7.7301 N   0  0  0  0  0  0  0  0  0  0  0  0
  -15.2978  -38.8981   -7.5143 C   0  0  0  0  0  0  0  0  0  0  0  0
  -16.6203  -39.1363   -6.9333 C   0  0  1  0  0  0  0  0  0  0  0  0
  -17.4715  -38.0635   -7.3667 O   0  0  0  0  0  0  0  0  0  0  0  0
  -17.3873  -40.3638   -7.2652 C   0  0  2  0  0  0  0  0  0  0  0  0
  -18.2165  -40.9320   -6.1348 C   0  0  0  0  0  0  0  0  0  0  0  0
  -19.5721  -40.3156   -6.1084 C   0  0  0  0  0  0  0  0  0  0  0  0
  -20.7175  -40.6367   -6.7923 C   0  0  0  0  0  0  0  0  0  0  0  0
  -21.8290  -39.8234   -6.6491 C   0  0  0  0  0  0  0  0  0  0  0  0
  -21.7761  -38.6973   -5.8105 C   0  0  0  0  0  0  0  0  0  0  0  0
  -20.6535  -38.3461   -5.1086 C   0  0  0  0  0  0  0  0  0  0  0  0
  -19.5736  -39.1718   -5.2795 C   0  0  0  0  0  0  0  0  0  0  0  0
  -23.0794  -39.9330   -7.2369 O   0  0  0  0  0  0  0  0  0  0  0  0
  -23.5526  -39.9347   -8.5585 C   0  0  0  0  0  0  0  0  0  0  0  0
  -22.3907  -39.7998   -9.4983 C   0  0  0  0  0  0  0  0  0  0  0  0
  -22.5254  -40.6626  -10.7254 C   0  0  0  0  0  0  0  0  0  0  0  0
  -22.7468  -42.0973  -10.4634 C   0  0  0  0  0  0  0  0  0  0  0  0
  -21.6907  -42.9750  -10.5852 O   0  0  0  0  0  0  0  0  0  0  0  0
  -20.5198  -43.3084   -9.9399 C   0  0  0  0  0  0  0  0  0  0  0  0
  -19.4099  -42.5145   -9.6819 C   0  0  0  0  0  0  0  0  0  0  0  0
  -18.3597  -43.0982   -9.0043 C   0  0  0  0  0  0  0  0  0  0  0  0
  -18.4667  -44.4593   -8.6159 C   0  0  0  0  0  0  0  0  0  0  0  0
  -19.5292  -45.2250   -8.8648 N   0  0  0  0  0  0  0  0  0  0  0  0
  -20.5351  -44.6580   -9.5150 C   0  0  0  0  0  0  0  0  0  0  0  0
  -17.0670  -42.5630   -8.5552 C   0  0  0  0  0  0  0  0  0  0  0  0
  -16.0587  -43.3893   -8.6102 O   0  0  0  0  0  0  0  0  0  0  0  0
  -16.6701  -41.3051   -8.0603 N   0  0  0  0  0  0  0  0  0  0  0  0
  1  2  1  0
  2  3  1  0
  2  4  1  0
  2  5  1  0
  5  6  1  0
  6  7  2  0
  7  8  1  0
  8  9  2  0
  9 10  1  0
  8 11  1  0
 11 12  1  0
 11 13  1  0
 11 14  1  0
 14 15  1  0
 15 16  1  0
 16 17  1  6
 16 18  1  0
 18 19  1  1
 19 20  1  0
 20 21  2  0
 21 22  1  0
 22 23  2  0
 23 24  1  0
 24 25  2  0
 22 26  1  0
 26 27  1  0
 27 28  1  0
 28 29  1  0
 29 30  1  0
 30 31  1  0
 31 32  1  0
 32 33  2  0
 33 34  1  0
 34 35  2  0
 35 36  1  0
 36 37  2  0
 34 38  1  0
 38 39  2  0
 38 40  1  0
 10  6  1  0
 25 20  1  0
 37 32  1  0
 40 18  1  0
M  END
$$$$
