
     RDKit          3D

 40 43  0  0  0  0  0  0  0  0999 V2000
  -13.3548  -36.0419  -13.9165 C   0  0  0  0  0  0  0  0  0  0  0  0
  -12.1027  -36.5335  -13.2308 C   0  0  0  0  0  0  0  0  0  0  0  0
  -12.0533  -36.0372  -11.7830 C   0  0  0  0  0  0  0  0  0  0  0  0
  -10.9217  -35.8845  -13.9416 C   0  0  0  0  0  0  0  0  0  0  0  0
  -11.9341  -38.0271  -13.2713 C   0  0  0  0  0  0  0  0  0  0  0  0
  -13.0240  -38.7469  -12.5287 C   0  0  0  0  0  0  0  0  0  0  0  0
  -12.9932  -39.1734  -11.2231 C   0  0  0  0  0  0  0  0  0  0  0  0
  -14.2214  -39.8040  -10.9347 C   0  0  0  0  0  0  0  0  0  0  0  0
  -14.8959  -39.7087  -12.0824 N   0  0  0  0  0  0  0  0  0  0  0  0
  -14.1967  -39.1006  -12.9870 O   0  0  0  0  0  0  0  0  0  0  0  0
  -14.5403  -40.3910   -9.6330 C   0  0  0  0  0  0  0  0  0  0  0  0
  -14.0455  -41.8298   -9.6556 C   0  0  0  0  0  0  0  0  0  0  0  0
  -13.6967  -39.7155   -8.5346 C   0  0  0  0  0  0  0  0  0  0  0  0
  -15.8959  -40.2990   -9.1755 N   0  0  0  0  0  0  0  0  0  0  0  0
  -16.2041  -39.0708   -8.5034 C   0  0  0  0  0  0  0  0  0  0  0  0
  -17.2303  -39.0890   -7.4594 C   0  0  1  0  0  0  0  0  0  0  0  0
  -18.1624  -38.0397   -7.7651 O   0  0  0  0  0  0  0  0  0  0  0  0
  -18.0861  -40.2852   -7.2544 C   0  0  2  0  0  0  0  0  0  0  0  0
  -18.8282  -40.3295   -5.9371 C   0  0  0  0  0  0  0  0  0  0  0  0
  -20.1425  -39.6370   -6.0442 C   0  0  0  0  0  0  0  0  0  0  0  0
  -21.3637  -40.0908   -6.4749 C   0  0  0  0  0  0  0  0  0  0  0  0
  -22.4141  -39.1931   -6.5648 C   0  0  0  0  0  0  0  0  0  0  0  0
  -22.2237  -37.8465   -6.2116 C   0  0  0  0  0  0  0  0  0  0  0  0
  -21.0220  -37.3563   -5.7739 C   0  0  0  0  0  0  0  0  0  0  0  0
  -20.0063  -38.2731   -5.7027 C   0  0  0  0  0  0  0  0  0  0  0  0
  -23.7198  -39.4070   -6.9777 O   0  0  0  0  0  0  0  0  0  0  0  0
  -24.3192  -39.8538   -8.1659 C   0  0  0  0  0  0  0  0  0  0  0  0
  -23.2491  -40.1686   -9.1696 C   0  0  0  0  0  0  0  0  0  0  0  0
  -23.5456  -41.4067   -9.9744 C   0  0  0  0  0  0  0  0  0  0  0  0
  -23.8114  -42.6222   -9.1820 C   0  0  0  0  0  0  0  0  0  0  0  0
  -22.8172  -43.5673   -9.0444 O   0  0  0  0  0  0  0  0  0  0  0  0
  -21.6070  -43.7363   -8.4077 C   0  0  0  0  0  0  0  0  0  0  0  0
  -20.4391  -42.9973   -8.5445 C   0  0  0  0  0  0  0  0  0  0  0  0
  -19.3581  -43.3765   -7.7760 C   0  0  0  0  0  0  0  0  0  0  0  0
  -19.4943  -44.4870   -6.9025 C   0  0  0  0  0  0  0  0  0  0  0  0
  -20.6128  -45.2005   -6.7711 N   0  0  0  0  0  0  0  0  0  0  0  0
  -21.6478  -44.8303   -7.5112 C   0  0  0  0  0  0  0  0  0  0  0  0
  -18.0028  -42.8224   -7.6530 C   0  0  0  0  0  0  0  0  0  0  0  0
  -17.0470  -43.6913   -7.4691 O   0  0  0  0  0  0  0  0  0  0  0  0
  -17.4975  -41.5078   -7.6917 N   0  0  0  0  0  0  0  0  0  0  0  0
  1  2  1  0
  2  3  1  0
  2  4  1  0
  2  5  1  0
  5  6  1  0
  6  7  2  0
  7  8  1  0
  8  9  2  0
  9 10  1  0
  8 11  1  0
 11 12  1  0
 11 13  1  0
 11 14  1  0
 14 15  1  0
 15 16  1  0
 16 17  1  6
 16 18  1  0
 18 19  1  1
 19 20  1  0
 20 21  2  0
 21 22  1  0
 22 23  2  0
 23 24  1  0
 24 25  2  0
 22 26  1  0
 26 27  1  0
 27 28  1  0
 28 29  1  0
 29 30  1  0
 30 31  1  0
 31 32  1  0
 32 33  2  0
 33 34  1  0
 34 35  2  0
 35 36  1  0
 36 37  2  0
 34 38  1  0
 38 39  2  0
 38 40  1  0
 10  6  1  0
 25 20  1  0
 37 32  1  0
 40 18  1  0
M  END
$$$$
