
     RDKit          3D

 40 43  0  0  0  0  0  0  0  0999 V2000
  -11.5730  -42.6553   -9.8460 C   0  0  0  0  0  0  0  0  0  0  0  0
  -12.1134  -41.3689  -10.4227 C   0  0  0  0  0  0  0  0  0  0  0  0
  -12.7828  -41.6265  -11.7756 C   0  0  0  0  0  0  0  0  0  0  0  0
  -10.9160  -40.4707  -10.7067 C   0  0  0  0  0  0  0  0  0  0  0  0
  -13.0601  -40.6430   -9.5074 C   0  0  0  0  0  0  0  0  0  0  0  0
  -13.8096  -39.5472  -10.2106 C   0  0  0  0  0  0  0  0  0  0  0  0
  -15.1627  -39.3129  -10.1708 C   0  0  0  0  0  0  0  0  0  0  0  0
  -15.4408  -38.1883  -10.9754 C   0  0  0  0  0  0  0  0  0  0  0  0
  -14.2397  -37.8317  -11.4355 N   0  0  0  0  0  0  0  0  0  0  0  0
  -13.3146  -38.6199  -10.9888 O   0  0  0  0  0  0  0  0  0  0  0  0
  -16.7877  -37.6528  -11.1750 C   0  0  0  0  0  0  0  0  0  0  0  0
  -16.6953  -36.6014  -12.2712 C   0  0  0  0  0  0  0  0  0  0  0  0
  -17.7004  -38.7429  -11.7691 C   0  0  0  0  0  0  0  0  0  0  0  0
  -17.4870  -37.1639  -10.0230 N   0  0  0  0  0  0  0  0  0  0  0  0
  -18.4046  -38.1061   -9.4525 C   0  0  0  0  0  0  0  0  0  0  0  0
  -18.3181  -38.3777   -8.0165 C   0  0  1  0  0  0  0  0  0  0  0  0
  -19.3255  -37.5800   -7.3744 O   0  0  0  0  0  0  0  0  0  0  0  0
  -18.5467  -39.7456   -7.4858 C   0  0  2  0  0  0  0  0  0  0  0  0
  -18.7753  -39.8286   -5.9928 C   0  0  0  0  0  0  0  0  0  0  0  0
  -20.2188  -39.6613   -5.6662 C   0  0  0  0  0  0  0  0  0  0  0  0
  -21.2432  -40.5735   -5.6333 C   0  0  0  0  0  0  0  0  0  0  0  0
  -22.5293  -40.1224   -5.3889 C   0  0  0  0  0  0  0  0  0  0  0  0
  -22.7682  -38.7549   -5.1724 C   0  0  0  0  0  0  0  0  0  0  0  0
  -21.7725  -37.8145   -5.1934 C   0  0  0  0  0  0  0  0  0  0  0  0
  -20.5152  -38.2983   -5.4427 C   0  0  0  0  0  0  0  0  0  0  0  0
  -23.7134  -40.8395   -5.3189 O   0  0  0  0  0  0  0  0  0  0  0  0
  -24.4291  -41.6535   -6.2109 C   0  0  0  0  0  0  0  0  0  0  0  0
  -23.6819  -41.7377   -7.5094 C   0  0  0  0  0  0  0  0  0  0  0  0
  -23.7148  -43.1154   -8.1169 C   0  0  0  0  0  0  0  0  0  0  0  0
  -23.2417  -44.2012   -7.2375 C   0  0  0  0  0  0  0  0  0  0  0  0
  -21.9720  -44.7077   -7.4161 O   0  0  0  0  0  0  0  0  0  0  0  0
  -20.6570  -44.3410   -7.2292 C   0  0  0  0  0  0  0  0  0  0  0  0
  -19.9611  -43.2763   -7.7866 C   0  0  0  0  0  0  0  0  0  0  0  0
  -18.6386  -43.1271   -7.4239 C   0  0  0  0  0  0  0  0  0  0  0  0
  -18.0676  -44.0577   -6.5168 C   0  0  0  0  0  0  0  0  0  0  0  0
  -18.7319  -45.0826   -5.9824 N   0  0  0  0  0  0  0  0  0  0  0  0
  -20.0021  -45.2196   -6.3339 C   0  0  0  0  0  0  0  0  0  0  0  0
  -17.6293  -42.1259   -7.7954 C   0  0  0  0  0  0  0  0  0  0  0  0
  -16.4080  -42.5678   -7.9201 O   0  0  0  0  0  0  0  0  0  0  0  0
  -17.7008  -40.7428   -8.0539 N   0  0  0  0  0  0  0  0  0  0  0  0
  1  2  1  0
  2  3  1  0
  2  4  1  0
  2  5  1  0
  5  6  1  0
  6  7  2  0
  7  8  1  0
  8  9  2  0
  9 10  1  0
  8 11  1  0
 11 12  1  0
 11 13  1  0
 11 14  1  0
 14 15  1  0
 15 16  1  0
 16 17  1  1
 16 18  1  0
 18 19  1  1
 19 20  1  0
 20 21  2  0
 21 22  1  0
 22 23  2  0
 23 24  1  0
 24 25  2  0
 22 26  1  0
 26 27  1  0
 27 28  1  0
 28 29  1  0
 29 30  1  0
 30 31  1  0
 31 32  1  0
 32 33  2  0
 33 34  1  0
 34 35  2  0
 35 36  1  0
 36 37  2  0
 34 38  1  0
 38 39  2  0
 38 40  1  0
 10  6  1  0
 25 20  1  0
 37 32  1  0
 40 18  1  0
M  END
$$$$
