
     RDKit          3D

 40 43  0  0  0  0  0  0  0  0999 V2000
  -12.9280  -35.0730  -13.4402 C   0  0  0  0  0  0  0  0  0  0  0  0
  -13.1209  -36.5462  -13.7079 C   0  0  0  0  0  0  0  0  0  0  0  0
  -11.9893  -37.3600  -13.0739 C   0  0  0  0  0  0  0  0  0  0  0  0
  -12.9943  -36.7456  -15.2130 C   0  0  0  0  0  0  0  0  0  0  0  0
  -14.4540  -37.0762  -13.2573 C   0  0  0  0  0  0  0  0  0  0  0  0
  -14.3196  -38.1863  -12.2538 C   0  0  0  0  0  0  0  0  0  0  0  0
  -14.0726  -38.0598  -10.9083 C   0  0  0  0  0  0  0  0  0  0  0  0
  -14.0210  -39.3518  -10.3447 C   0  0  0  0  0  0  0  0  0  0  0  0
  -14.2409  -40.1543  -11.3882 N   0  0  0  0  0  0  0  0  0  0  0  0
  -14.4100  -39.4720  -12.4757 O   0  0  0  0  0  0  0  0  0  0  0  0
  -13.7665  -39.6030   -8.9259 C   0  0  0  0  0  0  0  0  0  0  0  0
  -13.8521  -41.1074   -8.7136 C   0  0  0  0  0  0  0  0  0  0  0  0
  -12.3045  -39.2533   -8.5876 C   0  0  0  0  0  0  0  0  0  0  0  0
  -14.5559  -38.8826   -7.9704 N   0  0  0  0  0  0  0  0  0  0  0  0
  -14.7611  -39.5813   -6.7356 C   0  0  0  0  0  0  0  0  0  0  0  0
  -16.0746  -40.1771   -6.4846 C   0  0  1  0  0  0  0  0  0  0  0  0
  -16.9089  -39.1443   -5.9362 O   0  0  0  0  0  0  0  0  0  0  0  0
  -16.8800  -40.7401   -7.5979 C   0  0  2  0  0  0  0  0  0  0  0  0
  -17.9881  -41.6816   -7.1808 C   0  0  0  0  0  0  0  0  0  0  0  0
  -19.2437  -40.9321   -6.8980 C   0  0  0  0  0  0  0  0  0  0  0  0
  -20.2438  -40.5077   -7.7361 C   0  0  0  0  0  0  0  0  0  0  0  0
  -21.2663  -39.7333   -7.2144 C   0  0  0  0  0  0  0  0  0  0  0  0
  -21.2735  -39.4007   -5.8493 C   0  0  0  0  0  0  0  0  0  0  0  0
  -20.2961  -39.8081   -4.9805 C   0  0  0  0  0  0  0  0  0  0  0  0
  -19.2998  -40.5682   -5.5342 C   0  0  0  0  0  0  0  0  0  0  0  0
  -22.3663  -39.1838   -7.8541 O   0  0  0  0  0  0  0  0  0  0  0  0
  -22.5429  -38.2739   -8.9084 C   0  0  0  0  0  0  0  0  0  0  0  0
  -21.1991  -37.8513   -9.4252 C   0  0  0  0  0  0  0  0  0  0  0  0
  -21.1598  -37.7284  -10.9258 C   0  0  0  0  0  0  0  0  0  0  0  0
  -21.5849  -38.9314  -11.6660 C   0  0  0  0  0  0  0  0  0  0  0  0
  -20.6277  -39.7558  -12.2181 O   0  0  0  0  0  0  0  0  0  0  0  0
  -19.6649  -40.6601  -11.8258 C   0  0  0  0  0  0  0  0  0  0  0  0
  -18.5573  -40.4567  -11.0131 C   0  0  0  0  0  0  0  0  0  0  0  0
  -17.7454  -41.5447  -10.7681 C   0  0  0  0  0  0  0  0  0  0  0  0
  -18.0786  -42.7940  -11.3539 C   0  0  0  0  0  0  0  0  0  0  0  0
  -19.1391  -42.9919  -12.1371 N   0  0  0  0  0  0  0  0  0  0  0  0
  -19.9156  -41.9431  -12.3674 C   0  0  0  0  0  0  0  0  0  0  0  0
  -16.5290  -41.6949   -9.9576 C   0  0  0  0  0  0  0  0  0  0  0  0
  -15.6270  -42.5106  -10.4304 O   0  0  0  0  0  0  0  0  0  0  0  0
  -16.1145  -41.1273   -8.7366 N   0  0  0  0  0  0  0  0  0  0  0  0
  1  2  1  0
  2  3  1  0
  2  4  1  0
  2  5  1  0
  5  6  1  0
  6  7  2  0
  7  8  1  0
  8  9  2  0
  9 10  1  0
  8 11  1  0
 11 12  1  0
 11 13  1  0
 11 14  1  0
 14 15  1  0
 15 16  1  0
 16 17  1  6
 16 18  1  0
 18 19  1  1
 19 20  1  0
 20 21  2  0
 21 22  1  0
 22 23  2  0
 23 24  1  0
 24 25  2  0
 22 26  1  0
 26 27  1  0
 27 28  1  0
 28 29  1  0
 29 30  1  0
 30 31  1  0
 31 32  1  0
 32 33  2  0
 33 34  1  0
 34 35  2  0
 35 36  1  0
 36 37  2  0
 34 38  1  0
 38 39  2  0
 38 40  1  0
 10  6  1  0
 25 20  1  0
 37 32  1  0
 40 18  1  0
M  END
$$$$
