
     RDKit          3D

 40 43  0  0  0  0  0  0  0  0999 V2000
  -11.1761  -38.0962  -14.2658 C   0  0  0  0  0  0  0  0  0  0  0  0
  -11.9257  -36.8907  -13.7516 C   0  0  0  0  0  0  0  0  0  0  0  0
  -11.6075  -35.6576  -14.6021 C   0  0  0  0  0  0  0  0  0  0  0  0
  -11.3885  -36.5937  -12.3572 C   0  0  0  0  0  0  0  0  0  0  0  0
  -13.4136  -37.0907  -13.6676 C   0  0  0  0  0  0  0  0  0  0  0  0
  -13.7861  -38.2644  -12.8068 C   0  0  0  0  0  0  0  0  0  0  0  0
  -13.8842  -38.2875  -11.4367 C   0  0  0  0  0  0  0  0  0  0  0  0
  -14.2560  -39.5894  -11.0417 C   0  0  0  0  0  0  0  0  0  0  0  0
  -14.3544  -40.2481  -12.1983 N   0  0  0  0  0  0  0  0  0  0  0  0
  -14.0820  -39.4757  -13.2013 O   0  0  0  0  0  0  0  0  0  0  0  0
  -14.4457  -39.9854   -9.6459 C   0  0  0  0  0  0  0  0  0  0  0  0
  -15.0411  -41.3857   -9.6531 C   0  0  0  0  0  0  0  0  0  0  0  0
  -13.0760  -40.1575   -8.9612 C   0  0  0  0  0  0  0  0  0  0  0  0
  -15.1815  -39.0959   -8.7959 N   0  0  0  0  0  0  0  0  0  0  0  0
  -16.5424  -38.8941   -9.1989 C   0  0  0  0  0  0  0  0  0  0  0  0
  -17.5738  -38.8426   -8.1612 C   0  0  1  0  0  0  0  0  0  0  0  0
  -18.6350  -38.0136   -8.6613 O   0  0  0  0  0  0  0  0  0  0  0  0
  -18.2620  -40.0789   -7.7104 C   0  0  2  0  0  0  0  0  0  0  0  0
  -19.0577  -39.9444   -6.4309 C   0  0  0  0  0  0  0  0  0  0  0  0
  -20.4491  -39.4956   -6.7154 C   0  0  0  0  0  0  0  0  0  0  0  0
  -21.5701  -40.2092   -7.0570 C   0  0  0  0  0  0  0  0  0  0  0  0
  -22.7305  -39.5194   -7.3654 C   0  0  0  0  0  0  0  0  0  0  0  0
  -22.7503  -38.1152   -7.3187 C   0  0  0  0  0  0  0  0  0  0  0  0
  -21.6539  -37.3679   -6.9788 C   0  0  0  0  0  0  0  0  0  0  0  0
  -20.5243  -38.0854   -6.6849 C   0  0  0  0  0  0  0  0  0  0  0  0
  -23.9699  -40.0103   -7.7449 O   0  0  0  0  0  0  0  0  0  0  0  0
  -24.4380  -40.7899   -8.8144 C   0  0  0  0  0  0  0  0  0  0  0  0
  -23.2838  -41.1534   -9.7016 C   0  0  0  0  0  0  0  0  0  0  0  0
  -23.3608  -42.5674  -10.2147 C   0  0  0  0  0  0  0  0  0  0  0  0
  -23.4934  -43.6062   -9.1758 C   0  0  0  0  0  0  0  0  0  0  0  0
  -22.3843  -44.3396   -8.8113 O   0  0  0  0  0  0  0  0  0  0  0  0
  -21.1970  -44.1833   -8.1299 C   0  0  0  0  0  0  0  0  0  0  0  0
  -20.1394  -43.3267   -8.4061 C   0  0  0  0  0  0  0  0  0  0  0  0
  -19.0570  -43.3636   -7.5517 C   0  0  0  0  0  0  0  0  0  0  0  0
  -19.0804  -44.2641   -6.4547 C   0  0  0  0  0  0  0  0  0  0  0  0
  -20.0925  -45.0900   -6.1886 N   0  0  0  0  0  0  0  0  0  0  0  0
  -21.1296  -45.0487   -7.0123 C   0  0  0  0  0  0  0  0  0  0  0  0
  -17.8015  -42.6005   -7.5298 C   0  0  0  0  0  0  0  0  0  0  0  0
  -16.7436  -43.2561   -7.1380 O   0  0  0  0  0  0  0  0  0  0  0  0
  -17.4851  -41.2659   -7.8518 N   0  0  0  0  0  0  0  0  0  0  0  0
  1  2  1  0
  2  3  1  0
  2  4  1  0
  2  5  1  0
  5  6  1  0
  6  7  2  0
  7  8  1  0
  8  9  2  0
  9 10  1  0
  8 11  1  0
 11 12  1  0
 11 13  1  0
 11 14  1  0
 14 15  1  0
 15 16  1  0
 16 17  1  6
 16 18  1  0
 18 19  1  1
 19 20  1  0
 20 21  2  0
 21 22  1  0
 22 23  2  0
 23 24  1  0
 24 25  2  0
 22 26  1  0
 26 27  1  0
 27 28  1  0
 28 29  1  0
 29 30  1  0
 30 31  1  0
 31 32  1  0
 32 33  2  0
 33 34  1  0
 34 35  2  0
 35 36  1  0
 36 37  2  0
 34 38  1  0
 38 39  2  0
 38 40  1  0
 10  6  1  0
 25 20  1  0
 37 32  1  0
 40 18  1  0
M  END
$$$$
