
     RDKit          3D

 40 43  0  0  0  0  0  0  0  0999 V2000
  -12.4736  -34.9928  -14.3125 C   0  0  0  0  0  0  0  0  0  0  0  0
  -12.5678  -36.2412  -13.4687 C   0  0  0  0  0  0  0  0  0  0  0  0
  -11.6715  -36.1229  -12.2327 C   0  0  0  0  0  0  0  0  0  0  0  0
  -11.9962  -37.3839  -14.2986 C   0  0  0  0  0  0  0  0  0  0  0  0
  -13.9710  -36.5926  -13.0579 C   0  0  0  0  0  0  0  0  0  0  0  0
  -14.0445  -37.9099  -12.3391 C   0  0  0  0  0  0  0  0  0  0  0  0
  -14.5310  -38.1362  -11.0744 C   0  0  0  0  0  0  0  0  0  0  0  0
  -14.4087  -39.5129  -10.7932 C   0  0  0  0  0  0  0  0  0  0  0  0
  -13.8618  -40.0090  -11.9050 N   0  0  0  0  0  0  0  0  0  0  0  0
  -13.6586  -39.0783  -12.7821 O   0  0  0  0  0  0  0  0  0  0  0  0
  -14.8210  -40.1168   -9.5259 C   0  0  0  0  0  0  0  0  0  0  0  0
  -15.1696  -41.5700   -9.8130 C   0  0  0  0  0  0  0  0  0  0  0  0
  -13.6161  -40.1963   -8.5688 C   0  0  0  0  0  0  0  0  0  0  0  0
  -15.8516  -39.4575   -8.7786 N   0  0  0  0  0  0  0  0  0  0  0  0
  -17.0996  -39.3470   -9.4753 C   0  0  0  0  0  0  0  0  0  0  0  0
  -18.2979  -39.0101   -8.7047 C   0  0  1  0  0  0  0  0  0  0  0  0
  -19.4054  -39.0216   -9.6194 O   0  0  0  0  0  0  0  0  0  0  0  0
  -18.7472  -39.8714   -7.5815 C   0  0  2  0  0  0  0  0  0  0  0  0
  -19.3423  -39.1349   -6.4018 C   0  0  0  0  0  0  0  0  0  0  0  0
  -20.8061  -38.9309   -6.5865 C   0  0  0  0  0  0  0  0  0  0  0  0
  -21.8692  -39.7518   -6.3060 C   0  0  0  0  0  0  0  0  0  0  0  0
  -23.1404  -39.3450   -6.6747 C   0  0  0  0  0  0  0  0  0  0  0  0
  -23.3274  -38.1092   -7.3165 C   0  0  0  0  0  0  0  0  0  0  0  0
  -22.2930  -37.2607   -7.6099 C   0  0  0  0  0  0  0  0  0  0  0  0
  -21.0507  -37.6996   -7.2342 C   0  0  0  0  0  0  0  0  0  0  0  0
  -24.3531  -39.9961   -6.5116 O   0  0  0  0  0  0  0  0  0  0  0  0
  -24.8826  -41.2211   -6.9470 C   0  0  0  0  0  0  0  0  0  0  0  0
  -23.8460  -41.9477   -7.7527 C   0  0  0  0  0  0  0  0  0  0  0  0
  -23.8259  -43.4294   -7.4832 C   0  0  0  0  0  0  0  0  0  0  0  0
  -23.6630  -43.8081   -6.0668 C   0  0  0  0  0  0  0  0  0  0  0  0
  -22.4278  -44.2259   -5.6191 O   0  0  0  0  0  0  0  0  0  0  0  0
  -21.1770  -43.7135   -5.3519 C   0  0  0  0  0  0  0  0  0  0  0  0
  -20.2911  -43.0816   -6.2147 C   0  0  0  0  0  0  0  0  0  0  0  0
  -19.0918  -42.6521   -5.6853 C   0  0  0  0  0  0  0  0  0  0  0  0
  -18.8300  -42.8789   -4.3087 C   0  0  0  0  0  0  0  0  0  0  0  0
  -19.6768  -43.4880   -3.4786 N   0  0  0  0  0  0  0  0  0  0  0  0
  -20.8275  -43.8969   -3.9930 C   0  0  0  0  0  0  0  0  0  0  0  0
  -17.9534  -41.9453   -6.2883 C   0  0  0  0  0  0  0  0  0  0  0  0
  -16.7738  -42.2836   -5.8453 O   0  0  0  0  0  0  0  0  0  0  0  0
  -17.8604  -40.9452   -7.2763 N   0  0  0  0  0  0  0  0  0  0  0  0
  1  2  1  0
  2  3  1  0
  2  4  1  0
  2  5  1  0
  5  6  1  0
  6  7  2  0
  7  8  1  0
  8  9  2  0
  9 10  1  0
  8 11  1  0
 11 12  1  0
 11 13  1  0
 11 14  1  0
 14 15  1  0
 15 16  1  0
 16 17  1  6
 16 18  1  0
 18 19  1  1
 19 20  1  0
 20 21  2  0
 21 22  1  0
 22 23  2  0
 23 24  1  0
 24 25  2  0
 22 26  1  0
 26 27  1  0
 27 28  1  0
 28 29  1  0
 29 30  1  0
 30 31  1  0
 31 32  1  0
 32 33  2  0
 33 34  1  0
 34 35  2  0
 35 36  1  0
 36 37  2  0
 34 38  1  0
 38 39  2  0
 38 40  1  0
 10  6  1  0
 25 20  1  0
 37 32  1  0
 40 18  1  0
M  END
$$$$
