
     RDKit          3D

 40 43  0  0  0  0  0  0  0  0999 V2000
  -18.2124  -37.3723  -13.6418 C   0  0  0  0  0  0  0  0  0  0  0  0
  -19.3923  -38.2281  -13.2483 C   0  0  0  0  0  0  0  0  0  0  0  0
  -20.0978  -38.7749  -14.4926 C   0  0  0  0  0  0  0  0  0  0  0  0
  -20.3967  -37.3125  -12.5598 C   0  0  0  0  0  0  0  0  0  0  0  0
  -19.0419  -39.3546  -12.3158 C   0  0  0  0  0  0  0  0  0  0  0  0
  -17.6134  -39.2928  -11.8544 C   0  0  0  0  0  0  0  0  0  0  0  0
  -17.1238  -38.6090  -10.7681 C   0  0  0  0  0  0  0  0  0  0  0  0
  -15.7306  -38.8197  -10.7039 C   0  0  0  0  0  0  0  0  0  0  0  0
  -15.4884  -39.6116  -11.7506 N   0  0  0  0  0  0  0  0  0  0  0  0
  -16.5771  -39.8741  -12.4007 O   0  0  0  0  0  0  0  0  0  0  0  0
  -14.8729  -38.2330   -9.6740 C   0  0  0  0  0  0  0  0  0  0  0  0
  -13.4323  -38.4342  -10.1208 C   0  0  0  0  0  0  0  0  0  0  0  0
  -15.0547  -36.7030   -9.6523 C   0  0  0  0  0  0  0  0  0  0  0  0
  -15.0762  -38.6547   -8.3190 N   0  0  0  0  0  0  0  0  0  0  0  0
  -16.0870  -37.9150   -7.6217 C   0  0  0  0  0  0  0  0  0  0  0  0
  -16.9379  -38.6299   -6.6687 C   0  0  1  0  0  0  0  0  0  0  0  0
  -17.9377  -37.7027   -6.2170 O   0  0  0  0  0  0  0  0  0  0  0  0
  -17.7148  -39.8236   -7.0891 C   0  0  2  0  0  0  0  0  0  0  0  0
  -17.9524  -40.8529   -6.0063 C   0  0  0  0  0  0  0  0  0  0  0  0
  -19.1935  -40.5441   -5.2429 C   0  0  0  0  0  0  0  0  0  0  0  0
  -20.5049  -40.8573   -5.4969 C   0  0  0  0  0  0  0  0  0  0  0  0
  -21.4847  -40.3529   -4.6586 C   0  0  0  0  0  0  0  0  0  0  0  0
  -21.1306  -39.5428   -3.5666 C   0  0  0  0  0  0  0  0  0  0  0  0
  -19.8334  -39.2111   -3.2778 C   0  0  0  0  0  0  0  0  0  0  0  0
  -18.8934  -39.7248   -4.1319 C   0  0  0  0  0  0  0  0  0  0  0  0
  -22.8598  -40.5176   -4.7154 O   0  0  0  0  0  0  0  0  0  0  0  0
  -23.8527  -40.2122   -5.6596 C   0  0  0  0  0  0  0  0  0  0  0  0
  -23.2129  -39.5815   -6.8614 C   0  0  0  0  0  0  0  0  0  0  0  0
  -23.8195  -40.0444   -8.1599 C   0  0  0  0  0  0  0  0  0  0  0  0
  -23.8399  -41.5061   -8.3579 C   0  0  0  0  0  0  0  0  0  0  0  0
  -22.8979  -42.0877   -9.1794 O   0  0  0  0  0  0  0  0  0  0  0  0
  -21.5493  -42.3694   -9.1992 C   0  0  0  0  0  0  0  0  0  0  0  0
  -20.4743  -41.4931   -9.1274 C   0  0  0  0  0  0  0  0  0  0  0  0
  -19.2090  -42.0415   -9.1615 C   0  0  0  0  0  0  0  0  0  0  0  0
  -19.0756  -43.4506   -9.2700 C   0  0  0  0  0  0  0  0  0  0  0  0
  -20.1052  -44.2943   -9.3424 N   0  0  0  0  0  0  0  0  0  0  0  0
  -21.3179  -43.7612   -9.3079 C   0  0  0  0  0  0  0  0  0  0  0  0
  -17.8752  -41.4294   -9.0888 C   0  0  0  0  0  0  0  0  0  0  0  0
  -16.9501  -41.9922   -9.8167 O   0  0  0  0  0  0  0  0  0  0  0  0
  -17.3639  -40.3270   -8.3760 N   0  0  0  0  0  0  0  0  0  0  0  0
  1  2  1  0
  2  3  1  0
  2  4  1  0
  2  5  1  0
  5  6  1  0
  6  7  2  0
  7  8  1  0
  8  9  2  0
  9 10  1  0
  8 11  1  0
 11 12  1  0
 11 13  1  0
 11 14  1  0
 14 15  1  0
 15 16  1  0
 16 17  1  6
 16 18  1  0
 18 19  1  1
 19 20  1  0
 20 21  2  0
 21 22  1  0
 22 23  2  0
 23 24  1  0
 24 25  2  0
 22 26  1  0
 26 27  1  0
 27 28  1  0
 28 29  1  0
 29 30  1  0
 30 31  1  0
 31 32  1  0
 32 33  2  0
 33 34  1  0
 34 35  2  0
 35 36  1  0
 36 37  2  0
 34 38  1  0
 38 39  2  0
 38 40  1  0
 10  6  1  0
 25 20  1  0
 37 32  1  0
 40 18  1  0
M  END
$$$$
