
     RDKit          3D

 40 43  0  0  0  0  0  0  0  0999 V2000
  -24.3333  -42.3108   -7.7134 C   0  0  0  0  0  0  0  0  0  0  0  0
  -24.2424  -43.7080   -7.1485 C   0  0  0  0  0  0  0  0  0  0  0  0
  -24.4028  -44.7483   -8.2607 C   0  0  0  0  0  0  0  0  0  0  0  0
  -25.4370  -43.8919   -6.2210 C   0  0  0  0  0  0  0  0  0  0  0  0
  -22.9802  -43.9695   -6.3741 C   0  0  0  0  0  0  0  0  0  0  0  0
  -22.3851  -42.7118   -5.8071 C   0  0  0  0  0  0  0  0  0  0  0  0
  -21.3835  -41.9494   -6.3573 C   0  0  0  0  0  0  0  0  0  0  0  0
  -21.1306  -40.8623   -5.4950 C   0  0  0  0  0  0  0  0  0  0  0  0
  -21.9958  -41.0509   -4.4965 N   0  0  0  0  0  0  0  0  0  0  0  0
  -22.7080  -42.1150   -4.6891 O   0  0  0  0  0  0  0  0  0  0  0  0
  -20.1149  -39.8428   -5.7592 C   0  0  0  0  0  0  0  0  0  0  0  0
  -20.0274  -39.6764   -7.2692 C   0  0  0  0  0  0  0  0  0  0  0  0
  -20.6060  -38.4728   -5.2530 C   0  0  0  0  0  0  0  0  0  0  0  0
  -18.8223  -40.0215   -5.1653 N   0  0  0  0  0  0  0  0  0  0  0  0
  -17.8744  -39.0029   -5.5103 C   0  0  0  0  0  0  0  0  0  0  0  0
  -17.9260  -38.4338   -6.8582 C   0  0  1  0  0  0  0  0  0  0  0  0
  -16.8921  -37.4397   -6.9368 O   0  0  0  0  0  0  0  0  0  0  0  0
  -17.7003  -39.2862   -8.0531 C   0  0  2  0  0  0  0  0  0  0  0  0
  -18.4938  -38.8988   -9.2812 C   0  0  0  0  0  0  0  0  0  0  0  0
  -17.7583  -37.8891  -10.0923 C   0  0  0  0  0  0  0  0  0  0  0  0
  -16.7937  -38.0419  -11.0560 C   0  0  0  0  0  0  0  0  0  0  0  0
  -16.1994  -36.9105  -11.5891 C   0  0  0  0  0  0  0  0  0  0  0  0
  -16.5901  -35.6345  -11.1494 C   0  0  0  0  0  0  0  0  0  0  0  0
  -17.5512  -35.4406  -10.1929 C   0  0  0  0  0  0  0  0  0  0  0  0
  -18.1124  -36.5832   -9.6864 C   0  0  0  0  0  0  0  0  0  0  0  0
  -15.2077  -36.8099  -12.5521 O   0  0  0  0  0  0  0  0  0  0  0  0
  -13.8814  -37.2583  -12.6543 C   0  0  0  0  0  0  0  0  0  0  0  0
  -13.5237  -38.0260  -11.4157 C   0  0  0  0  0  0  0  0  0  0  0  0
  -12.6858  -39.2443  -11.7020 C   0  0  0  0  0  0  0  0  0  0  0  0
  -13.2598  -40.1853  -12.6824 C   0  0  0  0  0  0  0  0  0  0  0  0
  -13.8690  -41.3376  -12.2331 O   0  0  0  0  0  0  0  0  0  0  0  0
  -15.0134  -41.7356  -11.5769 C   0  0  0  0  0  0  0  0  0  0  0  0
  -15.4534  -41.3924  -10.3053 C   0  0  0  0  0  0  0  0  0  0  0  0
  -16.6521  -41.9303   -9.8851 C   0  0  0  0  0  0  0  0  0  0  0  0
  -17.3592  -42.7956  -10.7606 C   0  0  0  0  0  0  0  0  0  0  0  0
  -16.9381  -43.1296  -11.9806 N   0  0  0  0  0  0  0  0  0  0  0  0
  -15.7865  -42.6085  -12.3785 C   0  0  0  0  0  0  0  0  0  0  0  0
  -17.4118  -41.7719   -8.6373 C   0  0  0  0  0  0  0  0  0  0  0  0
  -18.0422  -42.8336   -8.2159 O   0  0  0  0  0  0  0  0  0  0  0  0
  -17.6123  -40.6806   -7.7692 N   0  0  0  0  0  0  0  0  0  0  0  0
  1  2  1  0
  2  3  1  0
  2  4  1  0
  2  5  1  0
  5  6  1  0
  6  7  2  0
  7  8  1  0
  8  9  2  0
  9 10  1  0
  8 11  1  0
 11 12  1  0
 11 13  1  0
 11 14  1  0
 14 15  1  0
 15 16  1  0
 16 17  1  1
 16 18  1  0
 18 19  1  6
 19 20  1  0
 20 21  2  0
 21 22  1  0
 22 23  2  0
 23 24  1  0
 24 25  2  0
 22 26  1  0
 26 27  1  0
 27 28  1  0
 28 29  1  0
 29 30  1  0
 30 31  1  0
 31 32  1  0
 32 33  2  0
 33 34  1  0
 34 35  2  0
 35 36  1  0
 36 37  2  0
 34 38  1  0
 38 39  2  0
 38 40  1  0
 10  6  1  0
 25 20  1  0
 37 32  1  0
 40 18  1  0
M  END
$$$$
