
     RDKit          3D

 40 43  0  0  0  0  0  0  0  0999 V2000
  -13.5230  -35.5167  -13.6398 C   0  0  0  0  0  0  0  0  0  0  0  0
  -12.1317  -35.8666  -13.1695 C   0  0  0  0  0  0  0  0  0  0  0  0
  -11.2148  -34.6426  -13.2474 C   0  0  0  0  0  0  0  0  0  0  0  0
  -11.5694  -36.8807  -14.1577 C   0  0  0  0  0  0  0  0  0  0  0  0
  -12.0881  -36.4580  -11.7876 C   0  0  0  0  0  0  0  0  0  0  0  0
  -12.9043  -37.7144  -11.6763 C   0  0  0  0  0  0  0  0  0  0  0  0
  -14.0497  -37.8943  -10.9394 C   0  0  0  0  0  0  0  0  0  0  0  0
  -14.4855  -39.2240  -11.1168 C   0  0  0  0  0  0  0  0  0  0  0  0
  -13.5747  -39.7410  -11.9440 N   0  0  0  0  0  0  0  0  0  0  0  0
  -12.6744  -38.8641  -12.2559 O   0  0  0  0  0  0  0  0  0  0  0  0
  -15.6773  -39.7749  -10.4711 C   0  0  0  0  0  0  0  0  0  0  0  0
  -16.8648  -39.4457  -11.3638 C   0  0  0  0  0  0  0  0  0  0  0  0
  -15.6108  -41.3143  -10.4783 C   0  0  0  0  0  0  0  0  0  0  0  0
  -15.9199  -39.4158   -9.1045 N   0  0  0  0  0  0  0  0  0  0  0  0
  -17.2435  -38.9247   -8.8551 C   0  0  0  0  0  0  0  0  0  0  0  0
  -17.8765  -39.2526   -7.5764 C   0  0  1  0  0  0  0  0  0  0  0  0
  -19.0245  -38.3996   -7.4425 O   0  0  0  0  0  0  0  0  0  0  0  0
  -18.4059  -40.6156   -7.3169 C   0  0  2  0  0  0  0  0  0  0  0  0
  -18.8501  -40.8751   -5.8944 C   0  0  0  0  0  0  0  0  0  0  0  0
  -20.2753  -40.4867   -5.7036 C   0  0  0  0  0  0  0  0  0  0  0  0
  -21.4344  -41.1817   -5.9400 C   0  0  0  0  0  0  0  0  0  0  0  0
  -22.6463  -40.5355   -5.7638 C   0  0  0  0  0  0  0  0  0  0  0  0
  -22.6768  -39.1953   -5.3429 C   0  0  0  0  0  0  0  0  0  0  0  0
  -21.5425  -38.4694   -5.0931 C   0  0  0  0  0  0  0  0  0  0  0  0
  -20.3635  -39.1410   -5.2829 C   0  0  0  0  0  0  0  0  0  0  0  0
  -23.9333  -41.0163   -5.9478 O   0  0  0  0  0  0  0  0  0  0  0  0
  -24.6463  -41.5369   -7.0392 C   0  0  0  0  0  0  0  0  0  0  0  0
  -23.7515  -41.5672   -8.2433 C   0  0  0  0  0  0  0  0  0  0  0  0
  -23.9336  -42.8073   -9.0785 C   0  0  0  0  0  0  0  0  0  0  0  0
  -23.7789  -44.0820   -8.3525 C   0  0  0  0  0  0  0  0  0  0  0  0
  -22.6015  -44.7886   -8.4756 O   0  0  0  0  0  0  0  0  0  0  0  0
  -21.2822  -44.7110   -8.0860 C   0  0  0  0  0  0  0  0  0  0  0  0
  -20.3447  -43.7273   -8.3727 C   0  0  0  0  0  0  0  0  0  0  0  0
  -19.0794  -43.8884   -7.8475 C   0  0  0  0  0  0  0  0  0  0  0  0
  -18.8065  -45.0354   -7.0570 C   0  0  0  0  0  0  0  0  0  0  0  0
  -19.7031  -45.9830   -6.7825 N   0  0  0  0  0  0  0  0  0  0  0  0
  -20.9169  -45.8217   -7.2889 C   0  0  0  0  0  0  0  0  0  0  0  0
  -17.8728  -43.0537   -7.9288 C   0  0  0  0  0  0  0  0  0  0  0  0
  -16.7392  -43.6965   -7.9935 O   0  0  0  0  0  0  0  0  0  0  0  0
  -17.6715  -41.6595   -7.9520 N   0  0  0  0  0  0  0  0  0  0  0  0
  1  2  1  0
  2  3  1  0
  2  4  1  0
  2  5  1  0
  5  6  1  0
  6  7  2  0
  7  8  1  0
  8  9  2  0
  9 10  1  0
  8 11  1  0
 11 12  1  0
 11 13  1  0
 11 14  1  0
 14 15  1  0
 15 16  1  0
 16 17  1  6
 16 18  1  0
 18 19  1  1
 19 20  1  0
 20 21  2  0
 21 22  1  0
 22 23  2  0
 23 24  1  0
 24 25  2  0
 22 26  1  0
 26 27  1  0
 27 28  1  0
 28 29  1  0
 29 30  1  0
 30 31  1  0
 31 32  1  0
 32 33  2  0
 33 34  1  0
 34 35  2  0
 35 36  1  0
 36 37  2  0
 34 38  1  0
 38 39  2  0
 38 40  1  0
 10  6  1  0
 25 20  1  0
 37 32  1  0
 40 18  1  0
M  END
$$$$
