
     RDKit          3D

 40 43  0  0  0  0  0  0  0  0999 V2000
  -17.2368  -36.0445  -14.6992 C   0  0  0  0  0  0  0  0  0  0  0  0
  -17.3642  -35.3382  -13.3710 C   0  0  0  0  0  0  0  0  0  0  0  0
  -18.6075  -35.8248  -12.6211 C   0  0  0  0  0  0  0  0  0  0  0  0
  -17.6009  -33.8635  -13.6717 C   0  0  0  0  0  0  0  0  0  0  0  0
  -16.1488  -35.4672  -12.4950 C   0  0  0  0  0  0  0  0  0  0  0  0
  -16.2719  -36.5918  -11.5064 C   0  0  0  0  0  0  0  0  0  0  0  0
  -16.0516  -36.5304  -10.1518 C   0  0  0  0  0  0  0  0  0  0  0  0
  -16.2767  -37.8124   -9.6084 C   0  0  0  0  0  0  0  0  0  0  0  0
  -16.6151  -38.5447  -10.6716 N   0  0  0  0  0  0  0  0  0  0  0  0
  -16.6078  -37.8316  -11.7525 O   0  0  0  0  0  0  0  0  0  0  0  0
  -16.1265  -38.1233   -8.1866 C   0  0  0  0  0  0  0  0  0  0  0  0
  -16.3600  -36.8315   -7.4170 C   0  0  0  0  0  0  0  0  0  0  0  0
  -17.2702  -39.0500   -7.7310 C   0  0  0  0  0  0  0  0  0  0  0  0
  -14.9220  -38.7817   -7.7730 N   0  0  0  0  0  0  0  0  0  0  0  0
  -15.1399  -39.9500   -6.9714 C   0  0  0  0  0  0  0  0  0  0  0  0
  -15.9106  -41.0536   -7.5472 C   0  0  1  0  0  0  0  0  0  0  0  0
  -15.5438  -42.2436   -6.8311 O   0  0  0  0  0  0  0  0  0  0  0  0
  -17.3950  -41.0485   -7.5047 C   0  0  2  0  0  0  0  0  0  0  0  0
  -18.0791  -41.0617   -8.8537 C   0  0  0  0  0  0  0  0  0  0  0  0
  -18.2825  -42.4573   -9.3326 C   0  0  0  0  0  0  0  0  0  0  0  0
  -19.2886  -43.3554   -9.0797 C   0  0  0  0  0  0  0  0  0  0  0  0
  -19.1772  -44.6401   -9.5842 C   0  0  0  0  0  0  0  0  0  0  0  0
  -18.0542  -45.0041  -10.3461 C   0  0  0  0  0  0  0  0  0  0  0  0
  -17.0317  -44.1359  -10.6233 C   0  0  0  0  0  0  0  0  0  0  0  0
  -17.1756  -42.8764  -10.1036 C   0  0  0  0  0  0  0  0  0  0  0  0
  -20.0454  -45.7128   -9.4556 O   0  0  0  0  0  0  0  0  0  0  0  0
  -20.5584  -46.4437   -8.3724 C   0  0  0  0  0  0  0  0  0  0  0  0
  -20.0180  -45.8744   -7.0935 C   0  0  0  0  0  0  0  0  0  0  0  0
  -21.0438  -45.8296   -5.9916 C   0  0  0  0  0  0  0  0  0  0  0  0
  -22.2932  -45.1195   -6.3249 C   0  0  0  0  0  0  0  0  0  0  0  0
  -22.4828  -43.8357   -5.8598 O   0  0  0  0  0  0  0  0  0  0  0  0
  -22.0109  -42.5588   -6.0731 C   0  0  0  0  0  0  0  0  0  0  0  0
  -20.7175  -42.0726   -5.9335 C   0  0  0  0  0  0  0  0  0  0  0  0
  -20.5096  -40.7394   -6.2202 C   0  0  0  0  0  0  0  0  0  0  0  0
  -21.6127  -39.9471   -6.6329 C   0  0  0  0  0  0  0  0  0  0  0  0
  -22.8560  -40.4099   -6.7649 N   0  0  0  0  0  0  0  0  0  0  0  0
  -23.0487  -41.6916   -6.4892 C   0  0  0  0  0  0  0  0  0  0  0  0
  -19.2953  -39.9123   -6.2005 C   0  0  0  0  0  0  0  0  0  0  0  0
  -19.4545  -38.6763   -5.8141 O   0  0  0  0  0  0  0  0  0  0  0  0
  -17.9494  -40.1777   -6.5214 N   0  0  0  0  0  0  0  0  0  0  0  0
  1  2  1  0
  2  3  1  0
  2  4  1  0
  2  5  1  0
  5  6  1  0
  6  7  2  0
  7  8  1  0
  8  9  2  0
  9 10  1  0
  8 11  1  0
 11 12  1  0
 11 13  1  0
 11 14  1  0
 14 15  1  0
 15 16  1  0
 16 17  1  1
 16 18  1  0
 18 19  1  6
 19 20  1  0
 20 21  2  0
 21 22  1  0
 22 23  2  0
 23 24  1  0
 24 25  2  0
 22 26  1  0
 26 27  1  0
 27 28  1  0
 28 29  1  0
 29 30  1  0
 30 31  1  0
 31 32  1  0
 32 33  2  0
 33 34  1  0
 34 35  2  0
 35 36  1  0
 36 37  2  0
 34 38  1  0
 38 39  2  0
 38 40  1  0
 10  6  1  0
 25 20  1  0
 37 32  1  0
 40 18  1  0
M  END
$$$$
