
     RDKit          3D

 40 43  0  0  0  0  0  0  0  0999 V2000
  -11.6410  -42.9492  -12.9680 C   0  0  0  0  0  0  0  0  0  0  0  0
  -12.2419  -41.9886  -13.9658 C   0  0  0  0  0  0  0  0  0  0  0  0
  -11.9668  -42.4590  -15.3968 C   0  0  0  0  0  0  0  0  0  0  0  0
  -11.5068  -40.6637  -13.8066 C   0  0  0  0  0  0  0  0  0  0  0  0
  -13.7147  -41.7543  -13.7727 C   0  0  0  0  0  0  0  0  0  0  0  0
  -14.0488  -41.3346  -12.3693 C   0  0  0  0  0  0  0  0  0  0  0  0
  -14.0894  -40.0528  -11.8767 C   0  0  0  0  0  0  0  0  0  0  0  0
  -14.4422  -40.1142  -10.5124 C   0  0  0  0  0  0  0  0  0  0  0  0
  -14.5877  -41.4219  -10.2885 N   0  0  0  0  0  0  0  0  0  0  0  0
  -14.3588  -42.1089  -11.3620 O   0  0  0  0  0  0  0  0  0  0  0  0
  -14.5726  -38.9328   -9.6593 C   0  0  0  0  0  0  0  0  0  0  0  0
  -13.1651  -38.4432   -9.3515 C   0  0  0  0  0  0  0  0  0  0  0  0
  -15.2107  -37.7798  -10.4579 C   0  0  0  0  0  0  0  0  0  0  0  0
  -15.3681  -39.0532   -8.4727 N   0  0  0  0  0  0  0  0  0  0  0  0
  -16.6954  -38.5273   -8.6026 C   0  0  0  0  0  0  0  0  0  0  0  0
  -17.6716  -38.8397   -7.5573 C   0  0  1  0  0  0  0  0  0  0  0  0
  -18.9256  -38.2714   -7.9672 O   0  0  0  0  0  0  0  0  0  0  0  0
  -18.0043  -40.2478   -7.2232 C   0  0  2  0  0  0  0  0  0  0  0  0
  -18.6154  -40.4594   -5.8557 C   0  0  0  0  0  0  0  0  0  0  0  0
  -20.0970  -40.3168   -5.9081 C   0  0  0  0  0  0  0  0  0  0  0  0
  -21.0756  -41.2254   -6.2235 C   0  0  0  0  0  0  0  0  0  0  0  0
  -22.3895  -40.7934   -6.2895 C   0  0  0  0  0  0  0  0  0  0  0  0
  -22.7043  -39.4491   -6.0288 C   0  0  0  0  0  0  0  0  0  0  0  0
  -21.7570  -38.5135   -5.7072 C   0  0  0  0  0  0  0  0  0  0  0  0
  -20.4690  -38.9776   -5.6562 C   0  0  0  0  0  0  0  0  0  0  0  0
  -23.5358  -41.5103   -6.5948 O   0  0  0  0  0  0  0  0  0  0  0  0
  -23.9755  -42.2417   -7.7094 C   0  0  0  0  0  0  0  0  0  0  0  0
  -22.9118  -42.2151   -8.7674 C   0  0  0  0  0  0  0  0  0  0  0  0
  -22.7563  -43.5348   -9.4763 C   0  0  0  0  0  0  0  0  0  0  0  0
  -22.5094  -44.6942   -8.5984 C   0  0  0  0  0  0  0  0  0  0  0  0
  -21.2275  -45.1871   -8.4782 O   0  0  0  0  0  0  0  0  0  0  0  0
  -20.0154  -44.8419   -7.9211 C   0  0  0  0  0  0  0  0  0  0  0  0
  -19.2189  -43.7349   -8.1834 C   0  0  0  0  0  0  0  0  0  0  0  0
  -18.0414  -43.6216   -7.4737 C   0  0  0  0  0  0  0  0  0  0  0  0
  -17.7104  -44.6292   -6.5302 C   0  0  0  0  0  0  0  0  0  0  0  0
  -18.4711  -45.6946   -6.2784 N   0  0  0  0  0  0  0  0  0  0  0  0
  -19.6013  -45.7968   -6.9625 C   0  0  0  0  0  0  0  0  0  0  0  0
  -16.9902  -42.5949   -7.4801 C   0  0  0  0  0  0  0  0  0  0  0  0
  -15.7705  -43.0280   -7.3155 O   0  0  0  0  0  0  0  0  0  0  0  0
  -17.0190  -41.1944   -7.6305 N   0  0  0  0  0  0  0  0  0  0  0  0
  1  2  1  0
  2  3  1  0
  2  4  1  0
  2  5  1  0
  5  6  1  0
  6  7  2  0
  7  8  1  0
  8  9  2  0
  9 10  1  0
  8 11  1  0
 11 12  1  0
 11 13  1  0
 11 14  1  0
 14 15  1  0
 15 16  1  0
 16 17  1  6
 16 18  1  0
 18 19  1  1
 19 20  1  0
 20 21  2  0
 21 22  1  0
 22 23  2  0
 23 24  1  0
 24 25  2  0
 22 26  1  0
 26 27  1  0
 27 28  1  0
 28 29  1  0
 29 30  1  0
 30 31  1  0
 31 32  1  0
 32 33  2  0
 33 34  1  0
 34 35  2  0
 35 36  1  0
 36 37  2  0
 34 38  1  0
 38 39  2  0
 38 40  1  0
 10  6  1  0
 25 20  1  0
 37 32  1  0
 40 18  1  0
M  END
$$$$
