
     RDKit          3D

 40 43  0  0  0  0  0  0  0  0999 V2000
  -10.9077  -37.2554  -10.6057 C   0  0  0  0  0  0  0  0  0  0  0  0
  -11.2030  -38.5932  -11.2401 C   0  0  0  0  0  0  0  0  0  0  0  0
  -11.5221  -39.6378  -10.1669 C   0  0  0  0  0  0  0  0  0  0  0  0
   -9.9193  -39.0587  -11.9159 C   0  0  0  0  0  0  0  0  0  0  0  0
  -12.3039  -38.5507  -12.2636 C   0  0  0  0  0  0  0  0  0  0  0  0
  -13.4693  -37.7143  -11.8169 C   0  0  0  0  0  0  0  0  0  0  0  0
  -14.7345  -38.1542  -11.5117 C   0  0  0  0  0  0  0  0  0  0  0  0
  -15.5138  -37.0380  -11.1425 C   0  0  0  0  0  0  0  0  0  0  0  0
  -14.6625  -36.0159  -11.2516 N   0  0  0  0  0  0  0  0  0  0  0  0
  -13.4946  -36.4189  -11.6392 O   0  0  0  0  0  0  0  0  0  0  0  0
  -16.9230  -37.1295  -10.7597 C   0  0  0  0  0  0  0  0  0  0  0  0
  -17.4710  -35.7105  -10.7205 C   0  0  0  0  0  0  0  0  0  0  0  0
  -17.7253  -37.8166  -11.8816 C   0  0  0  0  0  0  0  0  0  0  0  0
  -17.2429  -37.8593   -9.5679 N   0  0  0  0  0  0  0  0  0  0  0  0
  -18.1683  -37.1889   -8.7024 C   0  0  0  0  0  0  0  0  0  0  0  0
  -18.6406  -37.8949   -7.5100 C   0  0  1  0  0  0  0  0  0  0  0  0
  -20.0119  -37.5167   -7.3107 O   0  0  0  0  0  0  0  0  0  0  0  0
  -18.6640  -39.3790   -7.4640 C   0  0  2  0  0  0  0  0  0  0  0  0
  -18.4532  -39.9855   -6.0943 C   0  0  0  0  0  0  0  0  0  0  0  0
  -19.7476  -40.1276   -5.3713 C   0  0  0  0  0  0  0  0  0  0  0  0
  -20.6901  -41.1242   -5.4055 C   0  0  0  0  0  0  0  0  0  0  0  0
  -21.8663  -40.9534   -4.6952 C   0  0  0  0  0  0  0  0  0  0  0  0
  -22.0770  -39.7807   -3.9505 C   0  0  0  0  0  0  0  0  0  0  0  0
  -21.1595  -38.7655   -3.8883 C   0  0  0  0  0  0  0  0  0  0  0  0
  -20.0112  -38.9690   -4.6073 C   0  0  0  0  0  0  0  0  0  0  0  0
  -22.9574  -41.8011   -4.5853 O   0  0  0  0  0  0  0  0  0  0  0  0
  -23.8719  -42.3565   -5.4941 C   0  0  0  0  0  0  0  0  0  0  0  0
  -23.5249  -41.9031   -6.8817 C   0  0  0  0  0  0  0  0  0  0  0  0
  -23.6861  -42.9903   -7.9116 C   0  0  0  0  0  0  0  0  0  0  0  0
  -22.9468  -44.2357   -7.6313 C   0  0  0  0  0  0  0  0  0  0  0  0
  -21.7657  -44.4824   -8.2981 O   0  0  0  0  0  0  0  0  0  0  0  0
  -20.4646  -44.0303   -8.3360 C   0  0  0  0  0  0  0  0  0  0  0  0
  -19.9916  -42.7591   -8.6343 C   0  0  0  0  0  0  0  0  0  0  0  0
  -18.6260  -42.5678   -8.5940 C   0  0  0  0  0  0  0  0  0  0  0  0
  -17.7900  -43.6648   -8.2585 C   0  0  0  0  0  0  0  0  0  0  0  0
  -18.2406  -44.8870   -7.9748 N   0  0  0  0  0  0  0  0  0  0  0  0
  -19.5532  -45.0638   -8.0140 C   0  0  0  0  0  0  0  0  0  0  0  0
  -17.7977  -41.3769   -8.8282 C   0  0  0  0  0  0  0  0  0  0  0  0
  -16.6496  -41.5877   -9.4111 O   0  0  0  0  0  0  0  0  0  0  0  0
  -17.9844  -40.0090   -8.5474 N   0  0  0  0  0  0  0  0  0  0  0  0
  1  2  1  0
  2  3  1  0
  2  4  1  0
  2  5  1  0
  5  6  1  0
  6  7  2  0
  7  8  1  0
  8  9  2  0
  9 10  1  0
  8 11  1  0
 11 12  1  0
 11 13  1  0
 11 14  1  0
 14 15  1  0
 15 16  1  0
 16 17  1  6
 16 18  1  0
 18 19  1  1
 19 20  1  0
 20 21  2  0
 21 22  1  0
 22 23  2  0
 23 24  1  0
 24 25  2  0
 22 26  1  0
 26 27  1  0
 27 28  1  0
 28 29  1  0
 29 30  1  0
 30 31  1  0
 31 32  1  0
 32 33  2  0
 33 34  1  0
 34 35  2  0
 35 36  1  0
 36 37  2  0
 34 38  1  0
 38 39  2  0
 38 40  1  0
 10  6  1  0
 25 20  1  0
 37 32  1  0
 40 18  1  0
M  END
$$$$
