
     RDKit          3D

 40 43  0  0  0  0  0  0  0  0999 V2000
  -12.6636  -35.1389  -11.4870 C   0  0  0  0  0  0  0  0  0  0  0  0
  -13.0688  -35.0648  -12.9395 C   0  0  0  0  0  0  0  0  0  0  0  0
  -11.8318  -35.0456  -13.8418 C   0  0  0  0  0  0  0  0  0  0  0  0
  -13.7609  -33.7225  -13.1408 C   0  0  0  0  0  0  0  0  0  0  0  0
  -14.0032  -36.1629  -13.3665 C   0  0  0  0  0  0  0  0  0  0  0  0
  -13.7072  -37.4661  -12.6800 C   0  0  0  0  0  0  0  0  0  0  0  0
  -14.3384  -37.9802  -11.5734 C   0  0  0  0  0  0  0  0  0  0  0  0
  -13.7446  -39.2212  -11.2621 C   0  0  0  0  0  0  0  0  0  0  0  0
  -12.8063  -39.3601  -12.2010 N   0  0  0  0  0  0  0  0  0  0  0  0
  -12.7966  -38.3462  -13.0064 O   0  0  0  0  0  0  0  0  0  0  0  0
  -14.1598  -40.0530  -10.1323 C   0  0  0  0  0  0  0  0  0  0  0  0
  -15.1030  -41.1148  -10.6788 C   0  0  0  0  0  0  0  0  0  0  0  0
  -12.9541  -40.8519   -9.6010 C   0  0  0  0  0  0  0  0  0  0  0  0
  -14.7073  -39.3913   -8.9844 N   0  0  0  0  0  0  0  0  0  0  0  0
  -15.9959  -38.8039   -9.2073 C   0  0  0  0  0  0  0  0  0  0  0  0
  -17.0078  -38.9300   -8.1569 C   0  0  1  0  0  0  0  0  0  0  0  0
  -18.0905  -38.0529   -8.5059 O   0  0  0  0  0  0  0  0  0  0  0  0
  -17.6690  -40.2327   -7.8898 C   0  0  2  0  0  0  0  0  0  0  0  0
  -18.0300  -40.4883   -6.4432 C   0  0  0  0  0  0  0  0  0  0  0  0
  -19.3823  -39.9485   -6.1298 C   0  0  0  0  0  0  0  0  0  0  0  0
  -20.6283  -40.5002   -6.2902 C   0  0  0  0  0  0  0  0  0  0  0  0
  -21.7409  -39.7280   -6.0019 C   0  0  0  0  0  0  0  0  0  0  0  0
  -21.5850  -38.4078   -5.5469 C   0  0  0  0  0  0  0  0  0  0  0  0
  -20.3590  -37.8231   -5.3704 C   0  0  0  0  0  0  0  0  0  0  0  0
  -19.2830  -38.6164   -5.6702 C   0  0  0  0  0  0  0  0  0  0  0  0
  -23.0848  -40.0543   -6.0945 O   0  0  0  0  0  0  0  0  0  0  0  0
  -23.9342  -40.4543   -7.1381 C   0  0  0  0  0  0  0  0  0  0  0  0
  -23.1435  -40.5446   -8.4102 C   0  0  0  0  0  0  0  0  0  0  0  0
  -23.5302  -41.7274   -9.2586 C   0  0  0  0  0  0  0  0  0  0  0  0
  -23.4679  -43.0352   -8.5790 C   0  0  0  0  0  0  0  0  0  0  0  0
  -22.3924  -43.8653   -8.8131 O   0  0  0  0  0  0  0  0  0  0  0  0
  -21.0470  -43.9499   -8.5281 C   0  0  0  0  0  0  0  0  0  0  0  0
  -20.0274  -43.0690   -8.8643 C   0  0  0  0  0  0  0  0  0  0  0  0
  -18.7526  -43.3891   -8.4458 C   0  0  0  0  0  0  0  0  0  0  0  0
  -18.5537  -44.5855   -7.7082 C   0  0  0  0  0  0  0  0  0  0  0  0
  -19.5296  -45.4349   -7.3866 N   0  0  0  0  0  0  0  0  0  0  0  0
  -20.7520  -45.1209   -7.7905 C   0  0  0  0  0  0  0  0  0  0  0  0
  -17.4678  -42.6933   -8.6024 C   0  0  0  0  0  0  0  0  0  0  0  0
  -16.4239  -43.4571   -8.7731 O   0  0  0  0  0  0  0  0  0  0  0  0
  -17.1100  -41.3307   -8.6071 N   0  0  0  0  0  0  0  0  0  0  0  0
  1  2  1  0
  2  3  1  0
  2  4  1  0
  2  5  1  0
  5  6  1  0
  6  7  2  0
  7  8  1  0
  8  9  2  0
  9 10  1  0
  8 11  1  0
 11 12  1  0
 11 13  1  0
 11 14  1  0
 14 15  1  0
 15 16  1  0
 16 17  1  6
 16 18  1  0
 18 19  1  1
 19 20  1  0
 20 21  2  0
 21 22  1  0
 22 23  2  0
 23 24  1  0
 24 25  2  0
 22 26  1  0
 26 27  1  0
 27 28  1  0
 28 29  1  0
 29 30  1  0
 30 31  1  0
 31 32  1  0
 32 33  2  0
 33 34  1  0
 34 35  2  0
 35 36  1  0
 36 37  2  0
 34 38  1  0
 38 39  2  0
 38 40  1  0
 10  6  1  0
 25 20  1  0
 37 32  1  0
 40 18  1  0
M  END
$$$$
