
     RDKit          3D

 40 43  0  0  0  0  0  0  0  0999 V2000
  -19.0563  -35.9840  -13.3189 C   0  0  0  0  0  0  0  0  0  0  0  0
  -20.4425  -35.4044  -13.1706 C   0  0  0  0  0  0  0  0  0  0  0  0
  -21.3318  -35.8330  -14.3412 C   0  0  0  0  0  0  0  0  0  0  0  0
  -20.3057  -33.8906  -13.2746 C   0  0  0  0  0  0  0  0  0  0  0  0
  -21.1068  -35.7445  -11.8652 C   0  0  0  0  0  0  0  0  0  0  0  0
  -20.2826  -36.6832  -11.0304 C   0  0  0  0  0  0  0  0  0  0  0  0
  -18.9970  -36.4854  -10.5884 C   0  0  0  0  0  0  0  0  0  0  0  0
  -18.6068  -37.6168   -9.8421 C   0  0  0  0  0  0  0  0  0  0  0  0
  -19.6822  -38.4057   -9.8899 N   0  0  0  0  0  0  0  0  0  0  0  0
  -20.6347  -37.8574  -10.5747 O   0  0  0  0  0  0  0  0  0  0  0  0
  -17.2890  -37.7588   -9.2224 C   0  0  0  0  0  0  0  0  0  0  0  0
  -16.4824  -38.7096  -10.0947 C   0  0  0  0  0  0  0  0  0  0  0  0
  -16.5251  -36.4233   -9.3076 C   0  0  0  0  0  0  0  0  0  0  0  0
  -17.2408  -38.1316   -7.8389 N   0  0  0  0  0  0  0  0  0  0  0  0
  -16.0517  -38.8398   -7.4652 C   0  0  0  0  0  0  0  0  0  0  0  0
  -15.7845  -40.1318   -8.0996 C   0  0  1  0  0  0  0  0  0  0  0  0
  -15.1107  -40.9479   -7.1283 O   0  0  0  0  0  0  0  0  0  0  0  0
  -16.8983  -40.9877   -8.5815 C   0  0  2  0  0  0  0  0  0  0  0  0
  -16.5221  -42.0009   -9.6398 C   0  0  0  0  0  0  0  0  0  0  0  0
  -16.0605  -43.2729   -9.0173 C   0  0  0  0  0  0  0  0  0  0  0  0
  -16.7666  -44.3597   -8.5669 C   0  0  0  0  0  0  0  0  0  0  0  0
  -16.0822  -45.3822   -7.9317 C   0  0  0  0  0  0  0  0  0  0  0  0
  -14.6895  -45.3013   -7.7639 C   0  0  0  0  0  0  0  0  0  0  0  0
  -13.9492  -44.2356   -8.2027 C   0  0  0  0  0  0  0  0  0  0  0  0
  -14.6619  -43.2426   -8.8216 C   0  0  0  0  0  0  0  0  0  0  0  0
  -16.5694  -46.5602   -7.3877 O   0  0  0  0  0  0  0  0  0  0  0  0
  -17.4885  -46.8739   -6.3742 C   0  0  0  0  0  0  0  0  0  0  0  0
  -18.0440  -45.6029   -5.8019 C   0  0  0  0  0  0  0  0  0  0  0  0
  -19.5171  -45.6898   -5.5003 C   0  0  0  0  0  0  0  0  0  0  0  0
  -20.3673  -46.0994   -6.6340 C   0  0  0  0  0  0  0  0  0  0  0  0
  -21.0833  -45.1413   -7.3195 O   0  0  0  0  0  0  0  0  0  0  0  0
  -20.8748  -44.0981   -8.1952 C   0  0  0  0  0  0  0  0  0  0  0  0
  -20.1244  -42.9438   -8.0133 C   0  0  0  0  0  0  0  0  0  0  0  0
  -20.0735  -42.0515   -9.0640 C   0  0  0  0  0  0  0  0  0  0  0  0
  -20.7831  -42.3546  -10.2555 C   0  0  0  0  0  0  0  0  0  0  0  0
  -21.5070  -43.4601  -10.4321 N   0  0  0  0  0  0  0  0  0  0  0  0
  -21.5507  -44.3137   -9.4195 C   0  0  0  0  0  0  0  0  0  0  0  0
  -19.3764  -40.7679   -9.2246 C   0  0  0  0  0  0  0  0  0  0  0  0
  -20.0090  -39.8590   -9.9147 O   0  0  0  0  0  0  0  0  0  0  0  0
  -18.1276  -40.2929   -8.7779 N   0  0  0  0  0  0  0  0  0  0  0  0
  1  2  1  0
  2  3  1  0
  2  4  1  0
  2  5  1  0
  5  6  1  0
  6  7  2  0
  7  8  1  0
  8  9  2  0
  9 10  1  0
  8 11  1  0
 11 12  1  0
 11 13  1  0
 11 14  1  0
 14 15  1  0
 15 16  1  0
 16 17  1  1
 16 18  1  0
 18 19  1  6
 19 20  1  0
 20 21  2  0
 21 22  1  0
 22 23  2  0
 23 24  1  0
 24 25  2  0
 22 26  1  0
 26 27  1  0
 27 28  1  0
 28 29  1  0
 29 30  1  0
 30 31  1  0
 31 32  1  0
 32 33  2  0
 33 34  1  0
 34 35  2  0
 35 36  1  0
 36 37  2  0
 34 38  1  0
 38 39  2  0
 38 40  1  0
 10  6  1  0
 25 20  1  0
 37 32  1  0
 40 18  1  0
M  END
$$$$
