
     RDKit          3D

 40 43  0  0  0  0  0  0  0  0999 V2000
  -13.6921  -36.6929  -12.9536 C   0  0  0  0  0  0  0  0  0  0  0  0
  -14.6919  -35.8536  -12.1950 C   0  0  0  0  0  0  0  0  0  0  0  0
  -15.5184  -34.9996  -13.1605 C   0  0  0  0  0  0  0  0  0  0  0  0
  -13.8951  -34.8759  -11.3404 C   0  0  0  0  0  0  0  0  0  0  0  0
  -15.6015  -36.6513  -11.3019 C   0  0  0  0  0  0  0  0  0  0  0  0
  -15.0197  -37.9880  -10.9388 C   0  0  0  0  0  0  0  0  0  0  0  0
  -14.5504  -38.3794   -9.7084 C   0  0  0  0  0  0  0  0  0  0  0  0
  -14.0914  -39.7090   -9.8125 C   0  0  0  0  0  0  0  0  0  0  0  0
  -14.3193  -40.0165  -11.0911 N   0  0  0  0  0  0  0  0  0  0  0  0
  -14.8514  -39.0201  -11.7243 O   0  0  0  0  0  0  0  0  0  0  0  0
  -13.5131  -40.4524   -8.6928 C   0  0  0  0  0  0  0  0  0  0  0  0
  -13.6394  -41.9324   -9.0230 C   0  0  0  0  0  0  0  0  0  0  0  0
  -11.9935  -40.2046   -8.6307 C   0  0  0  0  0  0  0  0  0  0  0  0
  -13.9963  -40.1553   -7.3762 N   0  0  0  0  0  0  0  0  0  0  0  0
  -14.9624  -39.0970   -7.3329 C   0  0  0  0  0  0  0  0  0  0  0  0
  -16.2986  -39.3971   -6.8156 C   0  0  1  0  0  0  0  0  0  0  0  0
  -17.0358  -38.1643   -6.8093 O   0  0  0  0  0  0  0  0  0  0  0  0
  -17.1920  -40.3496   -7.5226 C   0  0  2  0  0  0  0  0  0  0  0  0
  -18.1032  -41.1632   -6.6305 C   0  0  0  0  0  0  0  0  0  0  0  0
  -19.3811  -40.4413   -6.3765 C   0  0  0  0  0  0  0  0  0  0  0  0
  -20.5408  -40.3852   -7.1076 C   0  0  0  0  0  0  0  0  0  0  0  0
  -21.5563  -39.5454   -6.6824 C   0  0  0  0  0  0  0  0  0  0  0  0
  -21.3943  -38.7753   -5.5184 C   0  0  0  0  0  0  0  0  0  0  0  0
  -20.2541  -38.8065   -4.7600 C   0  0  0  0  0  0  0  0  0  0  0  0
  -19.2709  -39.6452   -5.2148 C   0  0  0  0  0  0  0  0  0  0  0  0
  -22.7987  -39.3113   -7.2507 O   0  0  0  0  0  0  0  0  0  0  0  0
  -23.2415  -38.8206   -8.4891 C   0  0  0  0  0  0  0  0  0  0  0  0
  -22.0525  -38.5137   -9.3514 C   0  0  0  0  0  0  0  0  0  0  0  0
  -22.2580  -38.8990  -10.7928 C   0  0  0  0  0  0  0  0  0  0  0  0
  -22.6450  -40.3045  -11.0183 C   0  0  0  0  0  0  0  0  0  0  0  0
  -21.6922  -41.2055  -11.4438 O   0  0  0  0  0  0  0  0  0  0  0  0
  -20.5800  -41.8645  -10.9669 C   0  0  0  0  0  0  0  0  0  0  0  0
  -19.3934  -41.3323  -10.4799 C   0  0  0  0  0  0  0  0  0  0  0  0
  -18.4299  -42.2228  -10.0535 C   0  0  0  0  0  0  0  0  0  0  0  0
  -18.6977  -43.6142  -10.1375 C   0  0  0  0  0  0  0  0  0  0  0  0
  -19.8343  -44.1284  -10.6076 N   0  0  0  0  0  0  0  0  0  0  0  0
  -20.7561  -43.2677  -11.0143 C   0  0  0  0  0  0  0  0  0  0  0  0
  -17.0948  -42.0170   -9.4755 C   0  0  0  0  0  0  0  0  0  0  0  0
  -16.1851  -42.8866   -9.8198 O   0  0  0  0  0  0  0  0  0  0  0  0
  -16.5690  -41.0482   -8.5980 N   0  0  0  0  0  0  0  0  0  0  0  0
  1  2  1  0
  2  3  1  0
  2  4  1  0
  2  5  1  0
  5  6  1  0
  6  7  2  0
  7  8  1  0
  8  9  2  0
  9 10  1  0
  8 11  1  0
 11 12  1  0
 11 13  1  0
 11 14  1  0
 14 15  1  0
 15 16  1  0
 16 17  1  6
 16 18  1  0
 18 19  1  1
 19 20  1  0
 20 21  2  0
 21 22  1  0
 22 23  2  0
 23 24  1  0
 24 25  2  0
 22 26  1  0
 26 27  1  0
 27 28  1  0
 28 29  1  0
 29 30  1  0
 30 31  1  0
 31 32  1  0
 32 33  2  0
 33 34  1  0
 34 35  2  0
 35 36  1  0
 36 37  2  0
 34 38  1  0
 38 39  2  0
 38 40  1  0
 10  6  1  0
 25 20  1  0
 37 32  1  0
 40 18  1  0
M  END
$$$$
