
     RDKit          3D

 40 43  0  0  0  0  0  0  0  0999 V2000
  -13.3612  -36.0568  -13.9310 C   0  0  0  0  0  0  0  0  0  0  0  0
  -13.6879  -37.5015  -14.2239 C   0  0  0  0  0  0  0  0  0  0  0  0
  -12.5178  -38.4072  -13.8298 C   0  0  0  0  0  0  0  0  0  0  0  0
  -13.8311  -37.6280  -15.7354 C   0  0  0  0  0  0  0  0  0  0  0  0
  -14.9555  -37.9818  -13.5731 C   0  0  0  0  0  0  0  0  0  0  0  0
  -14.6940  -38.7593  -12.3143 C   0  0  0  0  0  0  0  0  0  0  0  0
  -14.7211  -38.2818  -11.0264 C   0  0  0  0  0  0  0  0  0  0  0  0
  -14.4145  -39.3464  -10.1534 C   0  0  0  0  0  0  0  0  0  0  0  0
  -14.2281  -40.3794  -10.9777 N   0  0  0  0  0  0  0  0  0  0  0  0
  -14.3915  -40.0276  -12.2132 O   0  0  0  0  0  0  0  0  0  0  0  0
  -14.3437  -39.2019   -8.6992 C   0  0  0  0  0  0  0  0  0  0  0  0
  -14.7775  -40.5290   -8.0941 C   0  0  0  0  0  0  0  0  0  0  0  0
  -12.8747  -39.0457   -8.2608 C   0  0  0  0  0  0  0  0  0  0  0  0
  -15.0327  -38.0934   -8.1062 N   0  0  0  0  0  0  0  0  0  0  0  0
  -15.5007  -38.3407   -6.7739 C   0  0  0  0  0  0  0  0  0  0  0  0
  -16.5186  -39.3740   -6.5759 C   0  0  1  0  0  0  0  0  0  0  0  0
  -17.5091  -38.8271   -5.6909 O   0  0  0  0  0  0  0  0  0  0  0  0
  -17.3058  -39.8961   -7.7218 C   0  0  2  0  0  0  0  0  0  0  0  0
  -17.9731  -41.2337   -7.4901 C   0  0  0  0  0  0  0  0  0  0  0  0
  -19.3220  -41.0565   -6.8839 C   0  0  0  0  0  0  0  0  0  0  0  0
  -20.5421  -40.8165   -7.4637 C   0  0  0  0  0  0  0  0  0  0  0  0
  -21.6364  -40.5934   -6.6451 C   0  0  0  0  0  0  0  0  0  0  0  0
  -21.4899  -40.6221   -5.2479 C   0  0  0  0  0  0  0  0  0  0  0  0
  -20.2904  -40.8619   -4.6317 C   0  0  0  0  0  0  0  0  0  0  0  0
  -19.2310  -41.0733   -5.4743 C   0  0  0  0  0  0  0  0  0  0  0  0
  -22.9511  -40.3222   -6.9902 O   0  0  0  0  0  0  0  0  0  0  0  0
  -23.5921  -39.3050   -7.7147 C   0  0  0  0  0  0  0  0  0  0  0  0
  -22.5642  -38.3324   -8.2139 C   0  0  0  0  0  0  0  0  0  0  0  0
  -22.8458  -37.8470   -9.6115 C   0  0  0  0  0  0  0  0  0  0  0  0
  -23.0120  -38.9074  -10.6233 C   0  0  0  0  0  0  0  0  0  0  0  0
  -21.9690  -39.1912  -11.4791 O   0  0  0  0  0  0  0  0  0  0  0  0
  -20.7197  -39.7722  -11.4589 C   0  0  0  0  0  0  0  0  0  0  0  0
  -19.5965  -39.3995  -10.7323 C   0  0  0  0  0  0  0  0  0  0  0  0
  -18.4593  -40.1640  -10.8911 C   0  0  0  0  0  0  0  0  0  0  0  0
  -18.4966  -41.2717  -11.7780 C   0  0  0  0  0  0  0  0  0  0  0  0
  -19.5721  -41.6302  -12.4794 N   0  0  0  0  0  0  0  0  0  0  0  0
  -20.6615  -40.8925  -12.3214 C   0  0  0  0  0  0  0  0  0  0  0  0
  -17.1265  -40.0738  -10.2790 C   0  0  0  0  0  0  0  0  0  0  0  0
  -16.1229  -40.3879  -11.0515 O   0  0  0  0  0  0  0  0  0  0  0  0
  -16.6855  -39.7088   -8.9918 N   0  0  0  0  0  0  0  0  0  0  0  0
  1  2  1  0
  2  3  1  0
  2  4  1  0
  2  5  1  0
  5  6  1  0
  6  7  2  0
  7  8  1  0
  8  9  2  0
  9 10  1  0
  8 11  1  0
 11 12  1  0
 11 13  1  0
 11 14  1  0
 14 15  1  0
 15 16  1  0
 16 17  1  1
 16 18  1  0
 18 19  1  1
 19 20  1  0
 20 21  2  0
 21 22  1  0
 22 23  2  0
 23 24  1  0
 24 25  2  0
 22 26  1  0
 26 27  1  0
 27 28  1  0
 28 29  1  0
 29 30  1  0
 30 31  1  0
 31 32  1  0
 32 33  2  0
 33 34  1  0
 34 35  2  0
 35 36  1  0
 36 37  2  0
 34 38  1  0
 38 39  2  0
 38 40  1  0
 10  6  1  0
 25 20  1  0
 37 32  1  0
 40 18  1  0
M  END
$$$$
