
     RDKit          3D

 40 43  0  0  0  0  0  0  0  0999 V2000
  -14.5744  -35.2345  -11.3246 C   0  0  0  0  0  0  0  0  0  0  0  0
  -14.4433  -35.9730  -12.6348 C   0  0  0  0  0  0  0  0  0  0  0  0
  -12.9900  -35.9574  -13.1170 C   0  0  0  0  0  0  0  0  0  0  0  0
  -15.2413  -35.1895  -13.6694 C   0  0  0  0  0  0  0  0  0  0  0  0
  -14.9581  -37.3852  -12.5905 C   0  0  0  0  0  0  0  0  0  0  0  0
  -14.2341  -38.2273  -11.5786 C   0  0  0  0  0  0  0  0  0  0  0  0
  -14.7960  -39.0032  -10.5940 C   0  0  0  0  0  0  0  0  0  0  0  0
  -13.7552  -39.6200   -9.8688 C   0  0  0  0  0  0  0  0  0  0  0  0
  -12.6509  -39.1719  -10.4697 N   0  0  0  0  0  0  0  0  0  0  0  0
  -12.9412  -38.3744  -11.4478 O   0  0  0  0  0  0  0  0  0  0  0  0
  -13.9834  -40.5156   -8.7346 C   0  0  0  0  0  0  0  0  0  0  0  0
  -14.9458  -41.5974   -9.2028 C   0  0  0  0  0  0  0  0  0  0  0  0
  -12.6863  -41.2780   -8.4019 C   0  0  0  0  0  0  0  0  0  0  0  0
  -14.4018  -39.9275   -7.4959 N   0  0  0  0  0  0  0  0  0  0  0  0
  -15.3881  -38.8974   -7.6413 C   0  0  0  0  0  0  0  0  0  0  0  0
  -16.6600  -39.0485   -6.9324 C   0  0  1  0  0  0  0  0  0  0  0  0
  -17.5461  -38.0353   -7.4342 O   0  0  0  0  0  0  0  0  0  0  0  0
  -17.4468  -40.3033   -7.0404 C   0  0  2  0  0  0  0  0  0  0  0  0
  -18.3621  -40.5935   -5.8715 C   0  0  0  0  0  0  0  0  0  0  0  0
  -19.6950  -39.9594   -6.0703 C   0  0  0  0  0  0  0  0  0  0  0  0
  -20.8069  -40.3994   -6.7431 C   0  0  0  0  0  0  0  0  0  0  0  0
  -21.8967  -39.5525   -6.8545 C   0  0  0  0  0  0  0  0  0  0  0  0
  -21.8566  -38.2714   -6.2789 C   0  0  0  0  0  0  0  0  0  0  0  0
  -20.7675  -37.7975   -5.5967 C   0  0  0  0  0  0  0  0  0  0  0  0
  -19.7080  -38.6620   -5.5116 C   0  0  0  0  0  0  0  0  0  0  0  0
  -23.1121  -39.7631   -7.4867 O   0  0  0  0  0  0  0  0  0  0  0  0
  -23.5038  -40.0447   -8.8050 C   0  0  0  0  0  0  0  0  0  0  0  0
  -22.2829  -40.1420   -9.6719 C   0  0  0  0  0  0  0  0  0  0  0  0
  -22.3720  -41.2497  -10.6885 C   0  0  0  0  0  0  0  0  0  0  0  0
  -22.6577  -42.5875  -10.1365 C   0  0  0  0  0  0  0  0  0  0  0  0
  -21.6267  -43.4915   -9.9940 O   0  0  0  0  0  0  0  0  0  0  0  0
  -20.5093  -43.6988   -9.2149 C   0  0  0  0  0  0  0  0  0  0  0  0
  -19.3907  -42.8901   -9.0619 C   0  0  0  0  0  0  0  0  0  0  0  0
  -18.4042  -43.3321   -8.2050 C   0  0  0  0  0  0  0  0  0  0  0  0
  -18.5809  -44.5728   -7.5384 C   0  0  0  0  0  0  0  0  0  0  0  0
  -19.6518  -45.3530   -7.6854 N   0  0  0  0  0  0  0  0  0  0  0  0
  -20.5963  -44.9221   -8.5089 C   0  0  0  0  0  0  0  0  0  0  0  0
  -17.1237  -42.7375   -7.7976 C   0  0  0  0  0  0  0  0  0  0  0  0
  -16.1427  -43.5757   -7.6043 O   0  0  0  0  0  0  0  0  0  0  0  0
  -16.7150  -41.4099   -7.5623 N   0  0  0  0  0  0  0  0  0  0  0  0
  1  2  1  0
  2  3  1  0
  2  4  1  0
  2  5  1  0
  5  6  1  0
  6  7  2  0
  7  8  1  0
  8  9  2  0
  9 10  1  0
  8 11  1  0
 11 12  1  0
 11 13  1  0
 11 14  1  0
 14 15  1  0
 15 16  1  0
 16 17  1  6
 16 18  1  0
 18 19  1  1
 19 20  1  0
 20 21  2  0
 21 22  1  0
 22 23  2  0
 23 24  1  0
 24 25  2  0
 22 26  1  0
 26 27  1  0
 27 28  1  0
 28 29  1  0
 29 30  1  0
 30 31  1  0
 31 32  1  0
 32 33  2  0
 33 34  1  0
 34 35  2  0
 35 36  1  0
 36 37  2  0
 34 38  1  0
 38 39  2  0
 38 40  1  0
 10  6  1  0
 25 20  1  0
 37 32  1  0
 40 18  1  0
M  END
$$$$
