
     RDKit          3D

 40 43  0  0  0  0  0  0  0  0999 V2000
  -12.2543  -35.7602  -12.7248 C   0  0  0  0  0  0  0  0  0  0  0  0
  -12.8979  -36.4709  -13.8911 C   0  0  0  0  0  0  0  0  0  0  0  0
  -11.8391  -37.1873  -14.7340 C   0  0  0  0  0  0  0  0  0  0  0  0
  -13.4996  -35.3975  -14.7895 C   0  0  0  0  0  0  0  0  0  0  0  0
  -13.9808  -37.4351  -13.4927 C   0  0  0  0  0  0  0  0  0  0  0  0
  -13.9616  -37.7422  -12.0221 C   0  0  0  0  0  0  0  0  0  0  0  0
  -13.3804  -38.8267  -11.4110 C   0  0  0  0  0  0  0  0  0  0  0  0
  -13.6023  -38.7232  -10.0219 C   0  0  0  0  0  0  0  0  0  0  0  0
  -14.2958  -37.5892   -9.9024 N   0  0  0  0  0  0  0  0  0  0  0  0
  -14.4943  -37.0382  -11.0573 O   0  0  0  0  0  0  0  0  0  0  0  0
  -13.1292  -39.7131   -9.0538 C   0  0  0  0  0  0  0  0  0  0  0  0
  -12.9859  -41.0340   -9.7954 C   0  0  0  0  0  0  0  0  0  0  0  0
  -11.6943  -39.3669   -8.6118 C   0  0  0  0  0  0  0  0  0  0  0  0
  -13.8719  -39.8612   -7.8365 N   0  0  0  0  0  0  0  0  0  0  0  0
  -14.9085  -38.8866   -7.6617 C   0  0  0  0  0  0  0  0  0  0  0  0
  -16.2123  -39.3392   -7.1733 C   0  0  1  0  0  0  0  0  0  0  0  0
  -16.9527  -38.1671   -6.7974 O   0  0  0  0  0  0  0  0  0  0  0  0
  -17.1405  -40.0845   -8.0611 C   0  0  2  0  0  0  0  0  0  0  0  0
  -17.8147  -41.2825   -7.4298 C   0  0  0  0  0  0  0  0  0  0  0  0
  -19.0794  -40.8840   -6.7514 C   0  0  0  0  0  0  0  0  0  0  0  0
  -20.3507  -40.7272   -7.2430 C   0  0  0  0  0  0  0  0  0  0  0  0
  -21.3368  -40.2458   -6.3985 C   0  0  0  0  0  0  0  0  0  0  0  0
  -21.0317  -39.9343   -5.0628 C   0  0  0  0  0  0  0  0  0  0  0  0
  -19.7767  -40.0808   -4.5341 C   0  0  0  0  0  0  0  0  0  0  0  0
  -18.8275  -40.5548   -5.4010 C   0  0  0  0  0  0  0  0  0  0  0  0
  -22.6742  -39.9950   -6.6624 O   0  0  0  0  0  0  0  0  0  0  0  0
  -23.3649  -39.1554   -7.5505 C   0  0  0  0  0  0  0  0  0  0  0  0
  -22.3738  -38.3974   -8.3839 C   0  0  0  0  0  0  0  0  0  0  0  0
  -22.8002  -38.2597   -9.8219 C   0  0  0  0  0  0  0  0  0  0  0  0
  -23.1117  -39.5274  -10.5089 C   0  0  0  0  0  0  0  0  0  0  0  0
  -22.1825  -40.0737  -11.3684 O   0  0  0  0  0  0  0  0  0  0  0  0
  -20.9563  -40.7011  -11.3316 C   0  0  0  0  0  0  0  0  0  0  0  0
  -19.7468  -40.2236  -10.8440 C   0  0  0  0  0  0  0  0  0  0  0  0
  -18.6576  -41.0667  -10.9212 C   0  0  0  0  0  0  0  0  0  0  0  0
  -18.8282  -42.3562  -11.4895 C   0  0  0  0  0  0  0  0  0  0  0  0
  -19.9870  -42.8164  -11.9613 N   0  0  0  0  0  0  0  0  0  0  0  0
  -21.0295  -42.0022  -11.8831 C   0  0  0  0  0  0  0  0  0  0  0  0
  -17.2613  -40.9026  -10.4940 C   0  0  0  0  0  0  0  0  0  0  0  0
  -16.3625  -41.4552  -11.2617 O   0  0  0  0  0  0  0  0  0  0  0  0
  -16.6651  -40.2544   -9.3944 N   0  0  0  0  0  0  0  0  0  0  0  0
  1  2  1  0
  2  3  1  0
  2  4  1  0
  2  5  1  0
  5  6  1  0
  6  7  2  0
  7  8  1  0
  8  9  2  0
  9 10  1  0
  8 11  1  0
 11 12  1  0
 11 13  1  0
 11 14  1  0
 14 15  1  0
 15 16  1  0
 16 17  1  6
 16 18  1  0
 18 19  1  1
 19 20  1  0
 20 21  2  0
 21 22  1  0
 22 23  2  0
 23 24  1  0
 24 25  2  0
 22 26  1  0
 26 27  1  0
 27 28  1  0
 28 29  1  0
 29 30  1  0
 30 31  1  0
 31 32  1  0
 32 33  2  0
 33 34  1  0
 34 35  2  0
 35 36  1  0
 36 37  2  0
 34 38  1  0
 38 39  2  0
 38 40  1  0
 10  6  1  0
 25 20  1  0
 37 32  1  0
 40 18  1  0
M  END
$$$$
