
     RDKit          3D

 40 43  0  0  0  0  0  0  0  0999 V2000
  -12.4057  -35.7742  -14.9784 C   0  0  0  0  0  0  0  0  0  0  0  0
  -12.2720  -36.5037  -13.6633 C   0  0  0  0  0  0  0  0  0  0  0  0
  -11.3630  -35.7256  -12.7077 C   0  0  0  0  0  0  0  0  0  0  0  0
  -11.5564  -37.8170  -13.9535 C   0  0  0  0  0  0  0  0  0  0  0  0
  -13.5868  -36.8026  -12.9978 C   0  0  0  0  0  0  0  0  0  0  0  0
  -13.4333  -37.7029  -11.8048 C   0  0  0  0  0  0  0  0  0  0  0  0
  -14.1682  -38.8275  -11.5171 C   0  0  0  0  0  0  0  0  0  0  0  0
  -13.6954  -39.3659  -10.3022 C   0  0  0  0  0  0  0  0  0  0  0  0
  -12.7157  -38.5297   -9.9529 N   0  0  0  0  0  0  0  0  0  0  0  0
  -12.5773  -37.5813  -10.8236 O   0  0  0  0  0  0  0  0  0  0  0  0
  -14.2538  -40.5674   -9.6813 C   0  0  0  0  0  0  0  0  0  0  0  0
  -14.6332  -41.5195  -10.8060 C   0  0  0  0  0  0  0  0  0  0  0  0
  -13.1519  -41.3146   -8.9055 C   0  0  0  0  0  0  0  0  0  0  0  0
  -15.3236  -40.3956   -8.7426 N   0  0  0  0  0  0  0  0  0  0  0  0
  -16.6282  -40.3925   -9.3368 C   0  0  0  0  0  0  0  0  0  0  0  0
  -17.7641  -39.9679   -8.5166 C   0  0  1  0  0  0  0  0  0  0  0  0
  -18.8557  -39.7026   -9.4118 O   0  0  0  0  0  0  0  0  0  0  0  0
  -18.3460  -40.8751   -7.4949 C   0  0  2  0  0  0  0  0  0  0  0  0
  -18.7951  -40.2031   -6.2163 C   0  0  0  0  0  0  0  0  0  0  0  0
  -20.2031  -39.7311   -6.3304 C   0  0  0  0  0  0  0  0  0  0  0  0
  -21.3896  -40.3877   -6.1214 C   0  0  0  0  0  0  0  0  0  0  0  0
  -22.5745  -39.7271   -6.3988 C   0  0  0  0  0  0  0  0  0  0  0  0
  -22.5506  -38.4064   -6.8777 C   0  0  0  0  0  0  0  0  0  0  0  0
  -21.3876  -37.7162   -7.0954 C   0  0  0  0  0  0  0  0  0  0  0  0
  -20.2368  -38.4043   -6.8140 C   0  0  0  0  0  0  0  0  0  0  0  0
  -23.8800  -40.1774   -6.2808 O   0  0  0  0  0  0  0  0  0  0  0  0
  -24.6168  -41.2293   -6.8476 C   0  0  0  0  0  0  0  0  0  0  0  0
  -23.7281  -42.0140   -7.7674 C   0  0  0  0  0  0  0  0  0  0  0  0
  -23.9619  -43.4995   -7.6830 C   0  0  0  0  0  0  0  0  0  0  0  0
  -23.8551  -44.0764   -6.3296 C   0  0  0  0  0  0  0  0  0  0  0  0
  -22.7070  -44.7517   -5.9740 O   0  0  0  0  0  0  0  0  0  0  0  0
  -21.3842  -44.4978   -5.6834 C   0  0  0  0  0  0  0  0  0  0  0  0
  -20.4097  -43.9220   -6.4880 C   0  0  0  0  0  0  0  0  0  0  0  0
  -19.1499  -43.7736   -5.9460 C   0  0  0  0  0  0  0  0  0  0  0  0
  -18.9197  -44.2138   -4.6163 C   0  0  0  0  0  0  0  0  0  0  0  0
  -19.8520  -44.7698   -3.8424 N   0  0  0  0  0  0  0  0  0  0  0  0
  -21.0603  -44.9084   -4.3685 C   0  0  0  0  0  0  0  0  0  0  0  0
  -17.9116  -43.2004   -6.4913 C   0  0  0  0  0  0  0  0  0  0  0  0
  -16.8045  -43.7880   -6.1289 O   0  0  0  0  0  0  0  0  0  0  0  0
  -17.6555  -42.1141   -7.3511 N   0  0  0  0  0  0  0  0  0  0  0  0
  1  2  1  0
  2  3  1  0
  2  4  1  0
  2  5  1  0
  5  6  1  0
  6  7  2  0
  7  8  1  0
  8  9  2  0
  9 10  1  0
  8 11  1  0
 11 12  1  0
 11 13  1  0
 11 14  1  0
 14 15  1  0
 15 16  1  0
 16 17  1  6
 16 18  1  0
 18 19  1  1
 19 20  1  0
 20 21  2  0
 21 22  1  0
 22 23  2  0
 23 24  1  0
 24 25  2  0
 22 26  1  0
 26 27  1  0
 27 28  1  0
 28 29  1  0
 29 30  1  0
 30 31  1  0
 31 32  1  0
 32 33  2  0
 33 34  1  0
 34 35  2  0
 35 36  1  0
 36 37  2  0
 34 38  1  0
 38 39  2  0
 38 40  1  0
 10  6  1  0
 25 20  1  0
 37 32  1  0
 40 18  1  0
M  END
$$$$
