
     RDKit          3D

 40 43  0  0  0  0  0  0  0  0999 V2000
  -12.3317  -35.4632  -14.3674 C   0  0  0  0  0  0  0  0  0  0  0  0
  -12.5879  -36.7870  -13.6882 C   0  0  0  0  0  0  0  0  0  0  0  0
  -11.6705  -36.9538  -12.4736 C   0  0  0  0  0  0  0  0  0  0  0  0
  -12.1883  -37.8778  -14.6739 C   0  0  0  0  0  0  0  0  0  0  0  0
  -14.0216  -36.9962  -13.2858 C   0  0  0  0  0  0  0  0  0  0  0  0
  -14.2241  -38.2817  -12.5351 C   0  0  0  0  0  0  0  0  0  0  0  0
  -14.0881  -38.4800  -11.1825 C   0  0  0  0  0  0  0  0  0  0  0  0
  -14.3669  -39.8343  -10.9037 C   0  0  0  0  0  0  0  0  0  0  0  0
  -14.6495  -40.3459  -12.1036 N   0  0  0  0  0  0  0  0  0  0  0  0
  -14.5633  -39.4442  -13.0289 O   0  0  0  0  0  0  0  0  0  0  0  0
  -14.3109  -40.4089   -9.5593 C   0  0  0  0  0  0  0  0  0  0  0  0
  -14.1445  -41.9129   -9.7201 C   0  0  0  0  0  0  0  0  0  0  0  0
  -13.0192  -39.9565   -8.8514 C   0  0  0  0  0  0  0  0  0  0  0  0
  -15.3712  -40.0824   -8.6513 N   0  0  0  0  0  0  0  0  0  0  0  0
  -16.3925  -39.2520   -9.2191 C   0  0  0  0  0  0  0  0  0  0  0  0
  -17.5824  -38.9667   -8.4154 C   0  0  1  0  0  0  0  0  0  0  0  0
  -18.5965  -38.4929   -9.3157 O   0  0  0  0  0  0  0  0  0  0  0  0
  -18.2561  -40.0427   -7.6451 C   0  0  2  0  0  0  0  0  0  0  0  0
  -18.9665  -39.5891   -6.3889 C   0  0  0  0  0  0  0  0  0  0  0  0
  -20.3674  -39.1816   -6.6885 C   0  0  0  0  0  0  0  0  0  0  0  0
  -21.5171  -39.9242   -6.7848 C   0  0  0  0  0  0  0  0  0  0  0  0
  -22.6858  -39.2946   -7.1784 C   0  0  0  0  0  0  0  0  0  0  0  0
  -22.6845  -37.9189   -7.4640 C   0  0  0  0  0  0  0  0  0  0  0  0
  -21.5591  -37.1431   -7.3759 C   0  0  0  0  0  0  0  0  0  0  0  0
  -20.4223  -37.8022   -6.9881 C   0  0  0  0  0  0  0  0  0  0  0  0
  -23.9532  -39.8265   -7.3570 O   0  0  0  0  0  0  0  0  0  0  0  0
  -24.4988  -40.8226   -8.1821 C   0  0  0  0  0  0  0  0  0  0  0  0
  -23.4086  -41.4164   -9.0249 C   0  0  0  0  0  0  0  0  0  0  0  0
  -23.5365  -42.9086   -9.1835 C   0  0  0  0  0  0  0  0  0  0  0  0
  -23.6156  -43.6699   -7.9224 C   0  0  0  0  0  0  0  0  0  0  0  0
  -22.4950  -44.3273   -7.4611 O   0  0  0  0  0  0  0  0  0  0  0  0
  -21.2646  -44.0480   -6.9075 C   0  0  0  0  0  0  0  0  0  0  0  0
  -20.2159  -43.3099   -7.4405 C   0  0  0  0  0  0  0  0  0  0  0  0
  -19.0816  -43.1747   -6.6673 C   0  0  0  0  0  0  0  0  0  0  0  0
  -19.0462  -43.7909   -5.3890 C   0  0  0  0  0  0  0  0  0  0  0  0
  -20.0498  -44.5027   -4.8757 N   0  0  0  0  0  0  0  0  0  0  0  0
  -21.1369  -44.6277   -5.6230 C   0  0  0  0  0  0  0  0  0  0  0  0
  -17.8175  -42.4628   -6.9007 C   0  0  0  0  0  0  0  0  0  0  0  0
  -16.7453  -43.0368   -6.4284 O   0  0  0  0  0  0  0  0  0  0  0  0
  -17.5052  -41.2508   -7.5474 N   0  0  0  0  0  0  0  0  0  0  0  0
  1  2  1  0
  2  3  1  0
  2  4  1  0
  2  5  1  0
  5  6  1  0
  6  7  2  0
  7  8  1  0
  8  9  2  0
  9 10  1  0
  8 11  1  0
 11 12  1  0
 11 13  1  0
 11 14  1  0
 14 15  1  0
 15 16  1  0
 16 17  1  6
 16 18  1  0
 18 19  1  1
 19 20  1  0
 20 21  2  0
 21 22  1  0
 22 23  2  0
 23 24  1  0
 24 25  2  0
 22 26  1  0
 26 27  1  0
 27 28  1  0
 28 29  1  0
 29 30  1  0
 30 31  1  0
 31 32  1  0
 32 33  2  0
 33 34  1  0
 34 35  2  0
 35 36  1  0
 36 37  2  0
 34 38  1  0
 38 39  2  0
 38 40  1  0
 10  6  1  0
 25 20  1  0
 37 32  1  0
 40 18  1  0
M  END
$$$$
