
     RDKit          3D

 34 35  0  0  0  0  0  0  0  0999 V2000
  -13.3798  -35.2438  -14.4816 C   0  0  0  0  0  0  0  0  0  0  0  0
  -12.5144  -35.5303  -13.2891 C   0  0  0  0  0  0  0  0  0  0  0  0
  -13.4010  -35.7431  -12.0553 C   0  0  0  0  0  0  0  0  0  0  0  0
  -14.0269  -37.1134  -12.1836 C   0  0  0  0  0  0  0  0  0  0  0  0
  -13.6076  -38.0298  -11.1640 N   0  0  0  0  0  0  0  0  0  0  0  0
  -14.4159  -39.1132  -10.7277 C   0  0  0  0  0  0  0  0  0  0  0  0
  -15.2854  -39.5460  -11.5234 O   0  0  0  0  0  0  0  0  0  0  0  0
  -14.1822  -39.6634   -9.3629 C   0  0  2  0  0  0  0  0  0  0  0  0
  -13.0905  -40.7114   -9.5297 C   0  0  0  0  0  0  0  0  0  0  0  0
  -15.4356  -40.3973   -8.8668 C   0  0  0  0  0  0  0  0  0  0  0  0
  -16.3168  -39.4531   -8.1317 C   0  0  2  0  0  0  0  0  0  0  0  0
  -15.5114  -38.6259   -7.3657 O   0  0  0  0  0  0  0  0  0  0  0  0
  -17.4667  -40.0406   -7.3953 C   0  0  2  0  0  0  0  0  0  0  0  0
  -18.1549  -39.1741   -6.4092 C   0  0  0  0  0  0  0  0  0  0  0  0
  -18.8048  -37.9350   -6.8412 C   0  0  2  0  0  0  0  0  0  0  0  0
  -18.8844  -37.0370   -5.5848 C   0  0  0  0  0  0  0  0  0  0  0  0
  -20.1753  -37.9918   -7.4233 C   0  0  0  0  0  0  0  0  0  0  0  0
  -20.9188  -39.2465   -7.1781 C   0  0  0  0  0  0  0  0  0  0  0  0
  -22.4025  -39.1534   -7.4182 C   0  0  0  0  0  0  0  0  0  0  0  0
  -22.9403  -40.5196   -7.8647 C   0  0  0  0  0  0  0  0  0  0  0  0
  -23.2747  -41.3755   -6.6937 C   0  0  0  0  0  0  0  0  0  0  0  0
  -23.3139  -42.8647   -6.9948 C   0  0  0  0  0  0  0  0  0  0  0  0
  -22.3108  -43.2430   -7.9575 N   0  0  0  0  0  0  0  0  0  0  0  0
  -20.8938  -43.3934   -7.8430 C   0  0  0  0  0  0  0  0  0  0  0  0
  -19.9327  -42.7021   -7.1396 C   0  0  0  0  0  0  0  0  0  0  0  0
  -18.6116  -43.0800   -7.3403 C   0  0  0  0  0  0  0  0  0  0  0  0
  -18.3206  -44.1410   -8.2327 C   0  0  0  0  0  0  0  0  0  0  0  0
  -19.2913  -44.8249   -8.9247 C   0  0  0  0  0  0  0  0  0  0  0  0
  -20.5153  -44.4280   -8.7046 N   0  0  0  0  0  0  0  0  0  0  0  0
  -18.9546  -45.8660   -9.7937 O   0  0  0  0  0  0  0  0  0  0  0  0
  -19.6298  -47.0895   -9.8024 C   0  0  0  0  0  0  0  0  0  0  0  0
  -17.3493  -42.5209   -6.8276 C   0  0  0  0  0  0  0  0  0  0  0  0
  -16.4358  -43.3847   -6.4967 O   0  0  0  0  0  0  0  0  0  0  0  0
  -16.9416  -41.1862   -6.6288 N   0  0  0  0  0  0  0  0  0  0  0  0
  1  2  1  0
  2  3  1  0
  3  4  1  0
  4  5  1  0
  5  6  1  0
  6  7  2  0
  6  8  1  0
  8  9  1  6
  8 10  1  0
 10 11  1  0
 11 12  1  1
 11 13  1  0
 13 14  1  1
 14 15  1  0
 15 16  1  1
 15 17  1  0
 17 18  1  0
 18 19  1  0
 19 20  1  0
 20 21  1  0
 21 22  1  0
 22 23  1  0
 23 24  1  0
 24 25  2  0
 25 26  1  0
 26 27  2  0
 27 28  1  0
 28 29  2  0
 28 30  1  0
 30 31  1  0
 26 32  1  0
 32 33  2  0
 32 34  1  0
 29 24  1  0
 34 13  1  0
M  END
$$$$
