
     RDKit          3D

 34 35  0  0  0  0  0  0  0  0999 V2000
  -11.8211  -34.9841  -12.5002 C   0  0  0  0  0  0  0  0  0  0  0  0
  -12.4282  -36.2771  -12.9611 C   0  0  0  0  0  0  0  0  0  0  0  0
  -13.6275  -36.6236  -12.0693 C   0  0  0  0  0  0  0  0  0  0  0  0
  -14.1396  -37.9757  -12.5117 C   0  0  0  0  0  0  0  0  0  0  0  0
  -14.0987  -38.9675  -11.4774 N   0  0  0  0  0  0  0  0  0  0  0  0
  -15.1647  -39.8770  -11.2450 C   0  0  0  0  0  0  0  0  0  0  0  0
  -15.8877  -40.1863  -12.2238 O   0  0  0  0  0  0  0  0  0  0  0  0
  -15.3559  -40.4026   -9.8640 C   0  0  2  0  0  0  0  0  0  0  0  0
  -14.6210  -41.7356   -9.8321 C   0  0  0  0  0  0  0  0  0  0  0  0
  -16.8400  -40.7031   -9.6132 C   0  0  0  0  0  0  0  0  0  0  0  0
  -17.3694  -39.7952   -8.5626 C   0  0  2  0  0  0  0  0  0  0  0  0
  -16.3177  -39.0237   -8.0955 O   0  0  0  0  0  0  0  0  0  0  0  0
  -18.1968  -40.4135   -7.4935 C   0  0  2  0  0  0  0  0  0  0  0  0
  -18.7403  -39.5124   -6.4498 C   0  0  0  0  0  0  0  0  0  0  0  0
  -19.6571  -38.4297   -6.8127 C   0  0  2  0  0  0  0  0  0  0  0  0
  -19.5559  -37.3881   -5.6743 C   0  0  0  0  0  0  0  0  0  0  0  0
  -21.1046  -38.7288   -7.0017 C   0  0  0  0  0  0  0  0  0  0  0  0
  -21.5649  -40.0200   -6.4465 C   0  0  0  0  0  0  0  0  0  0  0  0
  -23.0580  -40.1397   -6.2920 C   0  0  0  0  0  0  0  0  0  0  0  0
  -23.4771  -41.6081   -6.4439 C   0  0  0  0  0  0  0  0  0  0  0  0
  -23.3756  -42.3338   -5.1483 C   0  0  0  0  0  0  0  0  0  0  0  0
  -23.2629  -43.8437   -5.2811 C   0  0  0  0  0  0  0  0  0  0  0  0
  -22.4862  -44.2233   -6.4339 N   0  0  0  0  0  0  0  0  0  0  0  0
  -21.0794  -44.1850   -6.6855 C   0  0  0  0  0  0  0  0  0  0  0  0
  -20.0894  -43.2950   -6.3335 C   0  0  0  0  0  0  0  0  0  0  0  0
  -18.8185  -43.5340   -6.8397 C   0  0  0  0  0  0  0  0  0  0  0  0
  -18.6022  -44.6618   -7.6693 C   0  0  0  0  0  0  0  0  0  0  0  0
  -19.5998  -45.5443   -8.0084 C   0  0  0  0  0  0  0  0  0  0  0  0
  -20.7758  -45.2721   -7.5112 N   0  0  0  0  0  0  0  0  0  0  0  0
  -19.3369  -46.6438   -8.8295 O   0  0  0  0  0  0  0  0  0  0  0  0
  -20.2984  -47.1978   -9.6790 C   0  0  0  0  0  0  0  0  0  0  0  0
  -17.5678  -42.7631   -6.7377 C   0  0  0  0  0  0  0  0  0  0  0  0
  -16.4809  -43.4583   -6.5784 O   0  0  0  0  0  0  0  0  0  0  0  0
  -17.3301  -41.3745   -6.7857 N   0  0  0  0  0  0  0  0  0  0  0  0
  1  2  1  0
  2  3  1  0
  3  4  1  0
  4  5  1  0
  5  6  1  0
  6  7  2  0
  6  8  1  0
  8  9  1  6
  8 10  1  0
 10 11  1  0
 11 12  1  1
 11 13  1  0
 13 14  1  1
 14 15  1  0
 15 16  1  1
 15 17  1  0
 17 18  1  0
 18 19  1  0
 19 20  1  0
 20 21  1  0
 21 22  1  0
 22 23  1  0
 23 24  1  0
 24 25  2  0
 25 26  1  0
 26 27  2  0
 27 28  1  0
 28 29  2  0
 28 30  1  0
 30 31  1  0
 26 32  1  0
 32 33  2  0
 32 34  1  0
 29 24  1  0
 34 13  1  0
M  END
$$$$
