
     RDKit          3D

 34 35  0  0  0  0  0  0  0  0999 V2000
  -14.7052  -34.3982  -12.8296 C   0  0  0  0  0  0  0  0  0  0  0  0
  -15.5514  -35.6300  -12.9698 C   0  0  0  0  0  0  0  0  0  0  0  0
  -15.5259  -36.4183  -11.6539 C   0  0  0  0  0  0  0  0  0  0  0  0
  -14.2128  -37.1662  -11.6044 C   0  0  0  0  0  0  0  0  0  0  0  0
  -14.0250  -37.9094  -10.3929 N   0  0  0  0  0  0  0  0  0  0  0  0
  -14.5961  -39.1931  -10.1848 C   0  0  0  0  0  0  0  0  0  0  0  0
  -15.0755  -39.7840  -11.1836 O   0  0  0  0  0  0  0  0  0  0  0  0
  -14.5901  -39.7530   -8.8041 C   0  0  2  0  0  0  0  0  0  0  0  0
  -13.3235  -40.5929   -8.7126 C   0  0  0  0  0  0  0  0  0  0  0  0
  -15.7761  -40.7090   -8.6159 C   0  0  0  0  0  0  0  0  0  0  0  0
  -16.9942  -39.9386   -8.2541 C   0  0  2  0  0  0  0  0  0  0  0  0
  -16.5963  -38.6724   -7.8569 O   0  0  0  0  0  0  0  0  0  0  0  0
  -17.9563  -40.5956   -7.3307 C   0  0  2  0  0  0  0  0  0  0  0  0
  -18.6698  -39.7274   -6.3644 C   0  0  0  0  0  0  0  0  0  0  0  0
  -19.5480  -38.6571   -6.8413 C   0  0  2  0  0  0  0  0  0  0  0  0
  -19.6415  -37.6368   -5.6830 C   0  0  0  0  0  0  0  0  0  0  0  0
  -20.9439  -38.9825   -7.2485 C   0  0  0  0  0  0  0  0  0  0  0  0
  -21.4508  -40.2940   -6.7900 C   0  0  0  0  0  0  0  0  0  0  0  0
  -22.9470  -40.4480   -6.8614 C   0  0  0  0  0  0  0  0  0  0  0  0
  -23.3040  -41.9215   -7.0988 C   0  0  0  0  0  0  0  0  0  0  0  0
  -23.3787  -42.6711   -5.8150 C   0  0  0  0  0  0  0  0  0  0  0  0
  -23.2118  -44.1752   -5.9551 C   0  0  0  0  0  0  0  0  0  0  0  0
  -22.2638  -44.5151   -6.9857 N   0  0  0  0  0  0  0  0  0  0  0  0
  -20.8366  -44.4422   -7.0245 C   0  0  0  0  0  0  0  0  0  0  0  0
  -19.9311  -43.5390   -6.5141 C   0  0  0  0  0  0  0  0  0  0  0  0
  -18.5939  -43.7411   -6.8295 C   0  0  0  0  0  0  0  0  0  0  0  0
  -18.2303  -44.8471   -7.6366 C   0  0  0  0  0  0  0  0  0  0  0  0
  -19.1452  -45.7431   -8.1353 C   0  0  0  0  0  0  0  0  0  0  0  0
  -20.3881  -45.5058   -7.8140 N   0  0  0  0  0  0  0  0  0  0  0  0
  -18.7374  -46.8201   -8.9267 O   0  0  0  0  0  0  0  0  0  0  0  0
  -19.1264  -48.1369   -8.6668 C   0  0  0  0  0  0  0  0  0  0  0  0
  -17.3908  -42.9464   -6.5296 C   0  0  0  0  0  0  0  0  0  0  0  0
  -16.3234  -43.6218   -6.2221 O   0  0  0  0  0  0  0  0  0  0  0  0
  -17.1816  -41.5525   -6.5182 N   0  0  0  0  0  0  0  0  0  0  0  0
  1  2  1  0
  2  3  1  0
  3  4  1  0
  4  5  1  0
  5  6  1  0
  6  7  2  0
  6  8  1  0
  8  9  1  6
  8 10  1  0
 10 11  1  0
 11 12  1  1
 11 13  1  0
 13 14  1  1
 14 15  1  0
 15 16  1  1
 15 17  1  0
 17 18  1  0
 18 19  1  0
 19 20  1  0
 20 21  1  0
 21 22  1  0
 22 23  1  0
 23 24  1  0
 24 25  2  0
 25 26  1  0
 26 27  2  0
 27 28  1  0
 28 29  2  0
 28 30  1  0
 30 31  1  0
 26 32  1  0
 32 33  2  0
 32 34  1  0
 29 24  1  0
 34 13  1  0
M  END
$$$$
