
     RDKit          3D

 34 35  0  0  0  0  0  0  0  0999 V2000
  -12.6439  -35.8147  -13.7287 C   0  0  0  0  0  0  0  0  0  0  0  0
  -11.9761  -35.8738  -12.3858 C   0  0  0  0  0  0  0  0  0  0  0  0
  -13.0389  -36.0638  -11.2959 C   0  0  0  0  0  0  0  0  0  0  0  0
  -13.5374  -37.4875  -11.3988 C   0  0  0  0  0  0  0  0  0  0  0  0
  -13.7409  -38.1141  -10.1255 N   0  0  0  0  0  0  0  0  0  0  0  0
  -14.3243  -39.4020   -9.9896 C   0  0  0  0  0  0  0  0  0  0  0  0
  -14.6542  -40.0038  -11.0410 O   0  0  0  0  0  0  0  0  0  0  0  0
  -14.5064  -39.9532   -8.6173 C   0  0  2  0  0  0  0  0  0  0  0  0
  -13.3523  -40.9252   -8.4143 C   0  0  0  0  0  0  0  0  0  0  0  0
  -15.8014  -40.7738   -8.5446 C   0  0  0  0  0  0  0  0  0  0  0  0
  -16.9741  -39.8634   -8.4791 C   0  0  2  0  0  0  0  0  0  0  0  0
  -16.5032  -38.5604   -8.4742 O   0  0  0  0  0  0  0  0  0  0  0  0
  -17.9913  -40.1505   -7.4337 C   0  0  2  0  0  0  0  0  0  0  0  0
  -18.4992  -39.0012   -6.6476 C   0  0  0  0  0  0  0  0  0  0  0  0
  -19.2009  -37.9025   -7.3145 C   0  0  2  0  0  0  0  0  0  0  0  0
  -19.0636  -36.6802   -6.3772 C   0  0  0  0  0  0  0  0  0  0  0  0
  -20.6493  -38.0458   -7.6337 C   0  0  0  0  0  0  0  0  0  0  0  0
  -21.3528  -39.1344   -6.9214 C   0  0  0  0  0  0  0  0  0  0  0  0
  -22.8549  -39.0304   -6.9437 C   0  0  0  0  0  0  0  0  0  0  0  0
  -23.4709  -40.4346   -6.8840 C   0  0  0  0  0  0  0  0  0  0  0  0
  -23.6143  -40.9003   -5.4775 C   0  0  0  0  0  0  0  0  0  0  0  0
  -23.7156  -42.4088   -5.3224 C   0  0  0  0  0  0  0  0  0  0  0  0
  -22.8890  -43.1021   -6.2777 N   0  0  0  0  0  0  0  0  0  0  0  0
  -21.4740  -43.2931   -6.3468 C   0  0  0  0  0  0  0  0  0  0  0  0
  -20.4038  -42.4850   -6.0337 C   0  0  0  0  0  0  0  0  0  0  0  0
  -19.1374  -42.9782   -6.3192 C   0  0  0  0  0  0  0  0  0  0  0  0
  -19.0074  -44.2645   -6.8985 C   0  0  0  0  0  0  0  0  0  0  0  0
  -20.0851  -45.0617   -7.2014 C   0  0  0  0  0  0  0  0  0  0  0  0
  -21.2523  -44.5502   -6.9182 N   0  0  0  0  0  0  0  0  0  0  0  0
  -19.9059  -46.3247   -7.7714 O   0  0  0  0  0  0  0  0  0  0  0  0
  -20.5880  -47.4587   -7.3221 C   0  0  0  0  0  0  0  0  0  0  0  0
  -17.8029  -42.3680   -6.1947 C   0  0  0  0  0  0  0  0  0  0  0  0
  -16.8547  -43.1514   -5.7736 O   0  0  0  0  0  0  0  0  0  0  0  0
  -17.3564  -41.0573   -6.4588 N   0  0  0  0  0  0  0  0  0  0  0  0
  1  2  1  0
  2  3  1  0
  3  4  1  0
  4  5  1  0
  5  6  1  0
  6  7  2  0
  6  8  1  0
  8  9  1  6
  8 10  1  0
 10 11  1  0
 11 12  1  1
 11 13  1  0
 13 14  1  1
 14 15  1  0
 15 16  1  1
 15 17  1  0
 17 18  1  0
 18 19  1  0
 19 20  1  0
 20 21  1  0
 21 22  1  0
 22 23  1  0
 23 24  1  0
 24 25  2  0
 25 26  1  0
 26 27  2  0
 27 28  1  0
 28 29  2  0
 28 30  1  0
 30 31  1  0
 26 32  1  0
 32 33  2  0
 32 34  1  0
 29 24  1  0
 34 13  1  0
M  END
$$$$
