
     RDKit          3D

 34 35  0  0  0  0  0  0  0  0999 V2000
  -16.6182  -41.5322  -13.7103 C   0  0  0  0  0  0  0  0  0  0  0  0
  -16.5098  -42.5209  -12.5861 C   0  0  0  0  0  0  0  0  0  0  0  0
  -15.0323  -42.8509  -12.3381 C   0  0  0  0  0  0  0  0  0  0  0  0
  -14.5046  -41.8328  -11.3526 C   0  0  0  0  0  0  0  0  0  0  0  0
  -15.3769  -41.6145  -10.2360 N   0  0  0  0  0  0  0  0  0  0  0  0
  -15.1090  -40.6461   -9.2321 C   0  0  0  0  0  0  0  0  0  0  0  0
  -14.3800  -40.9931   -8.2706 O   0  0  0  0  0  0  0  0  0  0  0  0
  -15.7062  -39.2893   -9.3827 C   0  0  2  0  0  0  0  0  0  0  0  0
  -14.5256  -38.3439   -9.5575 C   0  0  0  0  0  0  0  0  0  0  0  0
  -16.4206  -38.8792   -8.0877 C   0  0  0  0  0  0  0  0  0  0  0  0
  -17.8821  -39.1130   -8.2206 C   0  0  2  0  0  0  0  0  0  0  0  0
  -18.5048  -37.8791   -8.3176 O   0  0  0  0  0  0  0  0  0  0  0  0
  -18.5074  -40.0386   -7.2396 C   0  0  2  0  0  0  0  0  0  0  0  0
  -19.0723  -39.4401   -6.0070 C   0  0  0  0  0  0  0  0  0  0  0  0
  -20.1646  -38.4685   -6.0910 C   0  0  2  0  0  0  0  0  0  0  0  0
  -20.1055  -37.6487   -4.7811 C   0  0  0  0  0  0  0  0  0  0  0  0
  -21.5659  -38.9534   -6.2382 C   0  0  0  0  0  0  0  0  0  0  0  0
  -21.7821  -40.3804   -5.9152 C   0  0  0  0  0  0  0  0  0  0  0  0
  -23.2213  -40.7610   -5.6884 C   0  0  0  0  0  0  0  0  0  0  0  0
  -23.4389  -42.2248   -6.0947 C   0  0  0  0  0  0  0  0  0  0  0  0
  -23.1120  -43.1488   -4.9744 C   0  0  0  0  0  0  0  0  0  0  0  0
  -22.7979  -44.5721   -5.4053 C   0  0  0  0  0  0  0  0  0  0  0  0
  -22.0880  -44.6078   -6.6587 N   0  0  0  0  0  0  0  0  0  0  0  0
  -20.7316  -44.3021   -6.9907 C   0  0  0  0  0  0  0  0  0  0  0  0
  -19.8499  -43.3457   -6.5389 C   0  0  0  0  0  0  0  0  0  0  0  0
  -18.6119  -43.2844   -7.1650 C   0  0  0  0  0  0  0  0  0  0  0  0
  -18.3165  -44.1937   -8.2104 C   0  0  0  0  0  0  0  0  0  0  0  0
  -19.2055  -45.1462   -8.6477 C   0  0  0  0  0  0  0  0  0  0  0  0
  -20.3556  -45.1588   -8.0302 N   0  0  0  0  0  0  0  0  0  0  0  0
  -18.8674  -46.0222   -9.6824 O   0  0  0  0  0  0  0  0  0  0  0  0
  -19.1081  -47.3972   -9.6155 C   0  0  0  0  0  0  0  0  0  0  0  0
  -17.4802  -42.3569   -6.9982 C   0  0  0  0  0  0  0  0  0  0  0  0
  -16.2949  -42.8884   -7.0494 O   0  0  0  0  0  0  0  0  0  0  0  0
  -17.4489  -40.9629   -6.7911 N   0  0  0  0  0  0  0  0  0  0  0  0
  1  2  1  0
  2  3  1  0
  3  4  1  0
  4  5  1  0
  5  6  1  0
  6  7  2  0
  6  8  1  0
  8  9  1  1
  8 10  1  0
 10 11  1  0
 11 12  1  1
 11 13  1  0
 13 14  1  1
 14 15  1  0
 15 16  1  1
 15 17  1  0
 17 18  1  0
 18 19  1  0
 19 20  1  0
 20 21  1  0
 21 22  1  0
 22 23  1  0
 23 24  1  0
 24 25  2  0
 25 26  1  0
 26 27  2  0
 27 28  1  0
 28 29  2  0
 28 30  1  0
 30 31  1  0
 26 32  1  0
 32 33  2  0
 32 34  1  0
 29 24  1  0
 34 13  1  0
M  END
$$$$
