
     RDKit          3D

 34 35  0  0  0  0  0  0  0  0999 V2000
  -11.9692  -36.9266  -13.8408 C   0  0  0  0  0  0  0  0  0  0  0  0
  -10.9579  -37.7381  -13.0848 C   0  0  0  0  0  0  0  0  0  0  0  0
  -11.5800  -38.2347  -11.7734 C   0  0  0  0  0  0  0  0  0  0  0  0
  -12.1865  -39.5917  -12.0502 C   0  0  0  0  0  0  0  0  0  0  0  0
  -12.9041  -40.1343  -10.9340 N   0  0  0  0  0  0  0  0  0  0  0  0
  -14.3228  -40.1829  -10.8853 C   0  0  0  0  0  0  0  0  0  0  0  0
  -14.9507  -39.8604  -11.9236 O   0  0  0  0  0  0  0  0  0  0  0  0
  -14.9713  -40.6104   -9.6137 C   0  0  2  0  0  0  0  0  0  0  0  0
  -15.8077  -41.8301   -9.9752 C   0  0  0  0  0  0  0  0  0  0  0  0
  -15.9445  -39.5282   -9.1265 C   0  0  0  0  0  0  0  0  0  0  0  0
  -17.3452  -39.9960   -9.2919 C   0  0  2  0  0  0  0  0  0  0  0  0
  -17.9630  -39.1739  -10.2203 O   0  0  0  0  0  0  0  0  0  0  0  0
  -18.1321  -40.2164   -8.0501 C   0  0  2  0  0  0  0  0  0  0  0  0
  -18.5556  -39.0145   -7.2932 C   0  0  0  0  0  0  0  0  0  0  0  0
  -19.4346  -38.0218   -7.9146 C   0  0  2  0  0  0  0  0  0  0  0  0
  -19.2019  -36.7042   -7.1394 C   0  0  0  0  0  0  0  0  0  0  0  0
  -20.9054  -38.2591   -7.9380 C   0  0  0  0  0  0  0  0  0  0  0  0
  -21.3970  -39.2971   -7.0061 C   0  0  0  0  0  0  0  0  0  0  0  0
  -22.8809  -39.2601   -6.7523 C   0  0  0  0  0  0  0  0  0  0  0  0
  -23.3879  -40.6756   -6.4452 C   0  0  0  0  0  0  0  0  0  0  0  0
  -23.2400  -40.9987   -4.9998 C   0  0  0  0  0  0  0  0  0  0  0  0
  -23.2181  -42.4860   -4.6875 C   0  0  0  0  0  0  0  0  0  0  0  0
  -22.5412  -43.2386   -5.7131 N   0  0  0  0  0  0  0  0  0  0  0  0
  -21.1543  -43.3752   -6.0315 C   0  0  0  0  0  0  0  0  0  0  0  0
  -20.0964  -42.4941   -6.0046 C   0  0  0  0  0  0  0  0  0  0  0  0
  -18.8767  -42.9597   -6.4780 C   0  0  0  0  0  0  0  0  0  0  0  0
  -18.7773  -44.2923   -6.9482 C   0  0  0  0  0  0  0  0  0  0  0  0
  -19.8414  -45.1619   -6.9647 C   0  0  0  0  0  0  0  0  0  0  0  0
  -20.9653  -44.6741   -6.5141 N   0  0  0  0  0  0  0  0  0  0  0  0
  -19.6933  -46.4684   -7.4374 O   0  0  0  0  0  0  0  0  0  0  0  0
  -19.7662  -47.5858   -6.6012 C   0  0  0  0  0  0  0  0  0  0  0  0
  -17.5822  -42.2834   -6.6671 C   0  0  0  0  0  0  0  0  0  0  0  0
  -16.5263  -42.9777   -6.3622 O   0  0  0  0  0  0  0  0  0  0  0  0
  -17.2735  -40.9893   -7.1329 N   0  0  0  0  0  0  0  0  0  0  0  0
  1  2  1  0
  2  3  1  0
  3  4  1  0
  4  5  1  0
  5  6  1  0
  6  7  2  0
  6  8  1  0
  8  9  1  6
  8 10  1  0
 10 11  1  0
 11 12  1  6
 11 13  1  0
 13 14  1  1
 14 15  1  0
 15 16  1  1
 15 17  1  0
 17 18  1  0
 18 19  1  0
 19 20  1  0
 20 21  1  0
 21 22  1  0
 22 23  1  0
 23 24  1  0
 24 25  2  0
 25 26  1  0
 26 27  2  0
 27 28  1  0
 28 29  2  0
 28 30  1  0
 30 31  1  0
 26 32  1  0
 32 33  2  0
 32 34  1  0
 29 24  1  0
 34 13  1  0
M  END
$$$$
