
     RDKit          3D

 34 35  0  0  0  0  0  0  0  0999 V2000
  -23.8717  -41.2853   -7.2512 C   0  0  0  0  0  0  0  0  0  0  0  0
  -23.2078  -40.0317   -7.7420 C   0  0  0  0  0  0  0  0  0  0  0  0
  -21.8369  -40.3799   -8.3360 C   0  0  0  0  0  0  0  0  0  0  0  0
  -21.1251  -41.2614   -7.3348 C   0  0  0  0  0  0  0  0  0  0  0  0
  -20.0677  -42.0398   -7.9105 N   0  0  0  0  0  0  0  0  0  0  0  0
  -18.6954  -41.7717   -7.6610 C   0  0  0  0  0  0  0  0  0  0  0  0
  -18.3572  -41.5296   -6.4763 O   0  0  0  0  0  0  0  0  0  0  0  0
  -17.7508  -41.7948   -8.8131 C   0  0  2  0  0  0  0  0  0  0  0  0
  -17.6802  -43.2514   -9.2504 C   0  0  0  0  0  0  0  0  0  0  0  0
  -16.3424  -41.3973   -8.3503 C   0  0  0  0  0  0  0  0  0  0  0  0
  -16.2112  -39.9171   -8.3437 C   0  0  2  0  0  0  0  0  0  0  0  0
  -17.1929  -39.4052   -7.5108 O   0  0  0  0  0  0  0  0  0  0  0  0
  -16.1183  -39.2439   -9.6659 C   0  0  2  0  0  0  0  0  0  0  0  0
  -17.3184  -38.5165  -10.1426 C   0  0  0  0  0  0  0  0  0  0  0  0
  -17.8491  -37.3858   -9.3782 C   0  0  2  0  0  0  0  0  0  0  0  0
  -19.3349  -37.2569   -9.7871 C   0  0  0  0  0  0  0  0  0  0  0  0
  -17.2341  -36.0385   -9.5420 C   0  0  0  0  0  0  0  0  0  0  0  0
  -16.3795  -35.8707  -10.7373 C   0  0  0  0  0  0  0  0  0  0  0  0
  -16.0873  -34.4395  -11.1035 C   0  0  0  0  0  0  0  0  0  0  0  0
  -14.7168  -34.3509  -11.7881 C   0  0  0  0  0  0  0  0  0  0  0  0
  -14.8276  -34.6077  -13.2501 C   0  0  0  0  0  0  0  0  0  0  0  0
  -13.5313  -35.0471  -13.9109 C   0  0  0  0  0  0  0  0  0  0  0  0
  -12.7465  -35.8884  -13.0434 N   0  0  0  0  0  0  0  0  0  0  0  0
  -12.9037  -37.2530  -12.6474 C   0  0  0  0  0  0  0  0  0  0  0  0
  -14.0090  -38.0249  -12.3669 C   0  0  0  0  0  0  0  0  0  0  0  0
  -13.7764  -39.3176  -11.9158 C   0  0  0  0  0  0  0  0  0  0  0  0
  -12.4429  -39.7750  -11.7762 C   0  0  0  0  0  0  0  0  0  0  0  0
  -11.3494  -38.9941  -12.0645 C   0  0  0  0  0  0  0  0  0  0  0  0
  -11.6220  -37.7868  -12.4798 N   0  0  0  0  0  0  0  0  0  0  0  0
  -10.0524  -39.4908  -11.9119 O   0  0  0  0  0  0  0  0  0  0  0  0
   -8.9758  -38.6848  -11.5320 C   0  0  0  0  0  0  0  0  0  0  0  0
  -14.6981  -40.3699  -11.4556 C   0  0  0  0  0  0  0  0  0  0  0  0
  -14.4101  -41.5823  -11.8262 O   0  0  0  0  0  0  0  0  0  0  0  0
  -15.8627  -40.2991  -10.6644 N   0  0  0  0  0  0  0  0  0  0  0  0
  1  2  1  0
  2  3  1  0
  3  4  1  0
  4  5  1  0
  5  6  1  0
  6  7  2  0
  6  8  1  0
  8  9  1  1
  8 10  1  0
 10 11  1  0
 11 12  1  6
 11 13  1  0
 13 14  1  6
 14 15  1  0
 15 16  1  6
 15 17  1  0
 17 18  1  0
 18 19  1  0
 19 20  1  0
 20 21  1  0
 21 22  1  0
 22 23  1  0
 23 24  1  0
 24 25  2  0
 25 26  1  0
 26 27  2  0
 27 28  1  0
 28 29  2  0
 28 30  1  0
 30 31  1  0
 26 32  1  0
 32 33  2  0
 32 34  1  0
 29 24  1  0
 34 13  1  0
M  END
$$$$
