
     RDKit          3D

 34 35  0  0  0  0  0  0  0  0999 V2000
  -10.9450  -36.0493  -13.6584 C   0  0  0  0  0  0  0  0  0  0  0  0
  -11.2678  -37.3677  -13.0175 C   0  0  0  0  0  0  0  0  0  0  0  0
  -12.3771  -37.1702  -11.9763 C   0  0  0  0  0  0  0  0  0  0  0  0
  -13.5511  -38.0212  -12.4048 C   0  0  0  0  0  0  0  0  0  0  0  0
  -13.7542  -39.1725  -11.5749 N   0  0  0  0  0  0  0  0  0  0  0  0
  -14.6825  -39.1883  -10.5000 C   0  0  0  0  0  0  0  0  0  0  0  0
  -14.2198  -39.2412   -9.3341 O   0  0  0  0  0  0  0  0  0  0  0  0
  -16.1365  -39.1415  -10.8223 C   0  0  2  0  0  0  0  0  0  0  0  0
  -16.6173  -37.7832  -10.3306 C   0  0  0  0  0  0  0  0  0  0  0  0
  -16.8921  -40.2042  -10.0127 C   0  0  0  0  0  0  0  0  0  0  0  0
  -18.0187  -39.5732   -9.2772 C   0  0  2  0  0  0  0  0  0  0  0  0
  -17.7402  -38.2223   -9.1468 O   0  0  0  0  0  0  0  0  0  0  0  0
  -18.4535  -40.2328   -8.0179 C   0  0  2  0  0  0  0  0  0  0  0  0
  -18.5583  -39.3829   -6.8082 C   0  0  0  0  0  0  0  0  0  0  0  0
  -19.4912  -38.2546   -6.7766 C   0  0  2  0  0  0  0  0  0  0  0  0
  -18.9524  -37.2884   -5.6961 C   0  0  0  0  0  0  0  0  0  0  0  0
  -20.9270  -38.5007   -6.4636 C   0  0  0  0  0  0  0  0  0  0  0  0
  -21.2278  -39.8102   -5.8456 C   0  0  0  0  0  0  0  0  0  0  0  0
  -22.5791  -39.8971   -5.1866 C   0  0  0  0  0  0  0  0  0  0  0  0
  -23.0945  -41.3410   -5.2534 C   0  0  0  0  0  0  0  0  0  0  0  0
  -22.5855  -42.1479   -4.1107 C   0  0  0  0  0  0  0  0  0  0  0  0
  -22.5980  -43.6492   -4.3469 C   0  0  0  0  0  0  0  0  0  0  0  0
  -22.2875  -43.9788   -5.7148 N   0  0  0  0  0  0  0  0  0  0  0  0
  -21.0548  -43.9645   -6.4385 C   0  0  0  0  0  0  0  0  0  0  0  0
  -19.9627  -43.1261   -6.4112 C   0  0  0  0  0  0  0  0  0  0  0  0
  -18.9587  -43.3691   -7.3392 C   0  0  0  0  0  0  0  0  0  0  0  0
  -19.0971  -44.4491   -8.2453 C   0  0  0  0  0  0  0  0  0  0  0  0
  -20.1914  -45.2806   -8.2578 C   0  0  0  0  0  0  0  0  0  0  0  0
  -21.1080  -45.0067   -7.3695 N   0  0  0  0  0  0  0  0  0  0  0  0
  -20.2818  -46.3343   -9.1708 O   0  0  0  0  0  0  0  0  0  0  0  0
  -20.7135  -47.6127   -8.8070 C   0  0  0  0  0  0  0  0  0  0  0  0
  -17.7147  -42.6414   -7.6424 C   0  0  0  0  0  0  0  0  0  0  0  0
  -16.6744  -43.3753   -7.9053 O   0  0  0  0  0  0  0  0  0  0  0  0
  -17.4423  -41.2597   -7.7034 N   0  0  0  0  0  0  0  0  0  0  0  0
  1  2  1  0
  2  3  1  0
  3  4  1  0
  4  5  1  0
  5  6  1  0
  6  7  2  0
  6  8  1  0
  8  9  1  1
  8 10  1  0
 10 11  1  0
 11 12  1  1
 11 13  1  0
 13 14  1  1
 14 15  1  0
 15 16  1  1
 15 17  1  0
 17 18  1  0
 18 19  1  0
 19 20  1  0
 20 21  1  0
 21 22  1  0
 22 23  1  0
 23 24  1  0
 24 25  2  0
 25 26  1  0
 26 27  2  0
 27 28  1  0
 28 29  2  0
 28 30  1  0
 30 31  1  0
 26 32  1  0
 32 33  2  0
 32 34  1  0
 29 24  1  0
 34 13  1  0
M  END
$$$$
