
     RDKit          3D

 34 35  0  0  0  0  0  0  0  0999 V2000
  -13.3002  -36.0875  -14.8792 C   0  0  0  0  0  0  0  0  0  0  0  0
  -13.0474  -36.9019  -13.6440 C   0  0  0  0  0  0  0  0  0  0  0  0
  -14.3258  -37.6593  -13.2623 C   0  0  0  0  0  0  0  0  0  0  0  0
  -13.9399  -38.7034  -12.2391 C   0  0  0  0  0  0  0  0  0  0  0  0
  -14.6908  -38.6133  -11.0212 N   0  0  0  0  0  0  0  0  0  0  0  0
  -14.4295  -39.4409   -9.8967 C   0  0  0  0  0  0  0  0  0  0  0  0
  -14.5342  -40.6823  -10.0526 O   0  0  0  0  0  0  0  0  0  0  0  0
  -14.0504  -38.7875   -8.6123 C   0  0  2  0  0  0  0  0  0  0  0  0
  -12.6020  -39.1872   -8.3662 C   0  0  0  0  0  0  0  0  0  0  0  0
  -14.8781  -39.3697   -7.4583 C   0  0  0  0  0  0  0  0  0  0  0  0
  -16.2953  -38.9415   -7.5862 C   0  0  2  0  0  0  0  0  0  0  0  0
  -16.4130  -37.6811   -7.0231 O   0  0  0  0  0  0  0  0  0  0  0  0
  -17.3332  -39.9091   -7.1429 C   0  0  2  0  0  0  0  0  0  0  0  0
  -18.3006  -39.4451   -6.1203 C   0  0  0  0  0  0  0  0  0  0  0  0
  -19.1872  -38.3141   -6.4014 C   0  0  2  0  0  0  0  0  0  0  0  0
  -19.6001  -37.7457   -5.0239 C   0  0  0  0  0  0  0  0  0  0  0  0
  -20.4419  -38.5417   -7.1723 C   0  0  0  0  0  0  0  0  0  0  0  0
  -20.8795  -39.9509   -7.2734 C   0  0  0  0  0  0  0  0  0  0  0  0
  -22.3120  -40.1337   -7.6998 C   0  0  0  0  0  0  0  0  0  0  0  0
  -22.4586  -41.4559   -8.4649 C   0  0  0  0  0  0  0  0  0  0  0  0
  -22.6850  -42.5947   -7.5335 C   0  0  0  0  0  0  0  0  0  0  0  0
  -22.3340  -43.9567   -8.1094 C   0  0  0  0  0  0  0  0  0  0  0  0
  -21.1828  -43.8922   -8.9736 N   0  0  0  0  0  0  0  0  0  0  0  0
  -19.7889  -43.7516   -8.6894 C   0  0  0  0  0  0  0  0  0  0  0  0
  -19.0946  -43.0349   -7.7403 C   0  0  0  0  0  0  0  0  0  0  0  0
  -17.7084  -43.0642   -7.8185 C   0  0  0  0  0  0  0  0  0  0  0  0
  -17.0864  -43.8198   -8.8426 C   0  0  0  0  0  0  0  0  0  0  0  0
  -17.7928  -44.5340   -9.7806 C   0  0  0  0  0  0  0  0  0  0  0  0
  -19.0917  -44.4696   -9.6662 N   0  0  0  0  0  0  0  0  0  0  0  0
  -17.1336  -45.2657  -10.7717 O   0  0  0  0  0  0  0  0  0  0  0  0
  -17.8148  -45.9668  -11.7704 C   0  0  0  0  0  0  0  0  0  0  0  0
  -16.6732  -42.3669   -7.0368 C   0  0  0  0  0  0  0  0  0  0  0  0
  -15.6133  -43.0615   -6.7466 O   0  0  0  0  0  0  0  0  0  0  0  0
  -16.6212  -41.0500   -6.5368 N   0  0  0  0  0  0  0  0  0  0  0  0
  1  2  1  0
  2  3  1  0
  3  4  1  0
  4  5  1  0
  5  6  1  0
  6  7  2  0
  6  8  1  0
  8  9  1  1
  8 10  1  0
 10 11  1  0
 11 12  1  1
 11 13  1  0
 13 14  1  1
 14 15  1  0
 15 16  1  1
 15 17  1  0
 17 18  1  0
 18 19  1  0
 19 20  1  0
 20 21  1  0
 21 22  1  0
 22 23  1  0
 23 24  1  0
 24 25  2  0
 25 26  1  0
 26 27  2  0
 27 28  1  0
 28 29  2  0
 28 30  1  0
 30 31  1  0
 26 32  1  0
 32 33  2  0
 32 34  1  0
 29 24  1  0
 34 13  1  0
M  END
$$$$
