
     RDKit          3D

 34 35  0  0  0  0  0  0  0  0999 V2000
  -11.3746  -35.0577  -12.6132 C   0  0  0  0  0  0  0  0  0  0  0  0
  -12.6666  -35.8215  -12.6295 C   0  0  0  0  0  0  0  0  0  0  0  0
  -13.0815  -36.1522  -11.1900 C   0  0  0  0  0  0  0  0  0  0  0  0
  -13.6048  -37.5707  -11.1887 C   0  0  0  0  0  0  0  0  0  0  0  0
  -14.0502  -38.0132   -9.8999 N   0  0  0  0  0  0  0  0  0  0  0  0
  -14.5209  -39.3322   -9.6628 C   0  0  0  0  0  0  0  0  0  0  0  0
  -14.9705  -39.9733  -10.6443 O   0  0  0  0  0  0  0  0  0  0  0  0
  -14.4515  -39.8676   -8.2741 C   0  0  2  0  0  0  0  0  0  0  0  0
  -13.1780  -40.7004   -8.2237 C   0  0  0  0  0  0  0  0  0  0  0  0
  -15.6233  -40.8250   -8.0173 C   0  0  0  0  0  0  0  0  0  0  0  0
  -16.8503  -40.0490   -7.7000 C   0  0  2  0  0  0  0  0  0  0  0  0
  -16.4728  -38.9321   -6.9722 O   0  0  0  0  0  0  0  0  0  0  0  0
  -17.9911  -40.8028   -7.1167 C   0  0  2  0  0  0  0  0  0  0  0  0
  -18.8297  -40.0985   -6.1180 C   0  0  0  0  0  0  0  0  0  0  0  0
  -19.5599  -38.8851   -6.4903 C   0  0  2  0  0  0  0  0  0  0  0  0
  -19.8175  -38.1225   -5.1700 C   0  0  0  0  0  0  0  0  0  0  0  0
  -20.8717  -39.0050   -7.1868 C   0  0  0  0  0  0  0  0  0  0  0  0
  -21.5094  -40.3375   -7.1168 C   0  0  0  0  0  0  0  0  0  0  0  0
  -22.9732  -40.3517   -7.4699 C   0  0  0  0  0  0  0  0  0  0  0  0
  -23.3446  -41.7102   -8.0793 C   0  0  0  0  0  0  0  0  0  0  0  0
  -23.6829  -42.7007   -7.0209 C   0  0  0  0  0  0  0  0  0  0  0  0
  -23.5585  -44.1518   -7.4556 C   0  0  0  0  0  0  0  0  0  0  0  0
  -22.4551  -44.3467   -8.3616 N   0  0  0  0  0  0  0  0  0  0  0  0
  -21.0427  -44.3832   -8.1438 C   0  0  0  0  0  0  0  0  0  0  0  0
  -20.2065  -43.6816   -7.3044 C   0  0  0  0  0  0  0  0  0  0  0  0
  -18.8443  -43.9216   -7.4276 C   0  0  0  0  0  0  0  0  0  0  0  0
  -18.3886  -44.8623   -8.3838 C   0  0  0  0  0  0  0  0  0  0  0  0
  -19.2359  -45.5586   -9.2120 C   0  0  0  0  0  0  0  0  0  0  0  0
  -20.5050  -45.2931   -9.0597 N   0  0  0  0  0  0  0  0  0  0  0  0
  -18.7385  -46.4779  -10.1393 O   0  0  0  0  0  0  0  0  0  0  0  0
  -19.5693  -47.2638  -10.9424 C   0  0  0  0  0  0  0  0  0  0  0  0
  -17.6822  -43.3064   -6.7643 C   0  0  0  0  0  0  0  0  0  0  0  0
  -16.7183  -44.1150   -6.4370 O   0  0  0  0  0  0  0  0  0  0  0  0
  -17.4185  -41.9666   -6.4143 N   0  0  0  0  0  0  0  0  0  0  0  0
  1  2  1  0
  2  3  1  0
  3  4  1  0
  4  5  1  0
  5  6  1  0
  6  7  2  0
  6  8  1  0
  8  9  1  6
  8 10  1  0
 10 11  1  0
 11 12  1  1
 11 13  1  0
 13 14  1  1
 14 15  1  0
 15 16  1  1
 15 17  1  0
 17 18  1  0
 18 19  1  0
 19 20  1  0
 20 21  1  0
 21 22  1  0
 22 23  1  0
 23 24  1  0
 24 25  2  0
 25 26  1  0
 26 27  2  0
 27 28  1  0
 28 29  2  0
 28 30  1  0
 30 31  1  0
 26 32  1  0
 32 33  2  0
 32 34  1  0
 29 24  1  0
 34 13  1  0
M  END
$$$$
