
     RDKit          3D

 34 35  0  0  0  0  0  0  0  0999 V2000
  -13.4791  -35.9424  -14.4044 C   0  0  0  0  0  0  0  0  0  0  0  0
  -12.3312  -36.1529  -13.4604 C   0  0  0  0  0  0  0  0  0  0  0  0
  -12.8673  -36.2983  -12.0304 C   0  0  0  0  0  0  0  0  0  0  0  0
  -12.3360  -37.6037  -11.4828 C   0  0  0  0  0  0  0  0  0  0  0  0
  -13.3624  -38.5644  -11.2023 N   0  0  0  0  0  0  0  0  0  0  0  0
  -14.3549  -38.3574  -10.2075 C   0  0  0  0  0  0  0  0  0  0  0  0
  -15.1435  -37.3934  -10.3660 O   0  0  0  0  0  0  0  0  0  0  0  0
  -14.3967  -39.2911   -9.0471 C   0  0  2  0  0  0  0  0  0  0  0  0
  -13.4065  -40.3981   -9.3815 C   0  0  0  0  0  0  0  0  0  0  0  0
  -15.7815  -39.9448   -8.9439 C   0  0  0  0  0  0  0  0  0  0  0  0
  -16.6266  -39.1903   -7.9822 C   0  0  2  0  0  0  0  0  0  0  0  0
  -15.7934  -38.3872   -7.2204 O   0  0  0  0  0  0  0  0  0  0  0  0
  -17.6107  -39.9753   -7.1914 C   0  0  2  0  0  0  0  0  0  0  0  0
  -18.4552  -39.2304   -6.2278 C   0  0  0  0  0  0  0  0  0  0  0  0
  -19.3646  -38.1833   -6.6979 C   0  0  2  0  0  0  0  0  0  0  0  0
  -19.6179  -37.2632   -5.4811 C   0  0  0  0  0  0  0  0  0  0  0  0
  -20.6989  -38.5628   -7.2419 C   0  0  0  0  0  0  0  0  0  0  0  0
  -21.1491  -39.9348   -6.9224 C   0  0  0  0  0  0  0  0  0  0  0  0
  -22.6212  -40.1759   -7.1287 C   0  0  0  0  0  0  0  0  0  0  0  0
  -22.8569  -41.6461   -7.5001 C   0  0  0  0  0  0  0  0  0  0  0  0
  -22.9802  -42.4956   -6.2841 C   0  0  0  0  0  0  0  0  0  0  0  0
  -22.7004  -43.9711   -6.5174 C   0  0  0  0  0  0  0  0  0  0  0  0
  -21.6538  -44.1708   -7.4875 N   0  0  0  0  0  0  0  0  0  0  0  0
  -20.2363  -44.0062   -7.4024 C   0  0  0  0  0  0  0  0  0  0  0  0
  -19.4373  -43.0903   -6.7550 C   0  0  0  0  0  0  0  0  0  0  0  0
  -18.0689  -43.1837   -6.9721 C   0  0  0  0  0  0  0  0  0  0  0  0
  -17.5685  -44.1993   -7.8235 C   0  0  0  0  0  0  0  0  0  0  0  0
  -18.3782  -45.1096   -8.4595 C   0  0  0  0  0  0  0  0  0  0  0  0
  -19.6557  -44.9757   -8.2263 N   0  0  0  0  0  0  0  0  0  0  0  0
  -17.8371  -46.0947   -9.2895 O   0  0  0  0  0  0  0  0  0  0  0  0
  -18.6031  -46.7998  -10.2218 C   0  0  0  0  0  0  0  0  0  0  0  0
  -16.9501  -42.3410   -6.5170 C   0  0  0  0  0  0  0  0  0  0  0  0
  -15.8662  -42.9702   -6.1712 O   0  0  0  0  0  0  0  0  0  0  0  0
  -16.8382  -40.9417   -6.3881 N   0  0  0  0  0  0  0  0  0  0  0  0
  1  2  1  0
  2  3  1  0
  3  4  1  0
  4  5  1  0
  5  6  1  0
  6  7  2  0
  6  8  1  0
  8  9  1  6
  8 10  1  0
 10 11  1  0
 11 12  1  1
 11 13  1  0
 13 14  1  1
 14 15  1  0
 15 16  1  1
 15 17  1  0
 17 18  1  0
 18 19  1  0
 19 20  1  0
 20 21  1  0
 21 22  1  0
 22 23  1  0
 23 24  1  0
 24 25  2  0
 25 26  1  0
 26 27  2  0
 27 28  1  0
 28 29  2  0
 28 30  1  0
 30 31  1  0
 26 32  1  0
 32 33  2  0
 32 34  1  0
 29 24  1  0
 34 13  1  0
M  END
$$$$
