
     RDKit          3D

 34 35  0  0  0  0  0  0  0  0999 V2000
  -12.4066  -36.6946  -12.9537 C   0  0  0  0  0  0  0  0  0  0  0  0
  -12.1634  -37.5814  -11.7674 C   0  0  0  0  0  0  0  0  0  0  0  0
  -13.5027  -37.9166  -11.0984 C   0  0  0  0  0  0  0  0  0  0  0  0
  -13.6933  -36.9384   -9.9613 C   0  0  0  0  0  0  0  0  0  0  0  0
  -14.9672  -37.0570   -9.3144 N   0  0  0  0  0  0  0  0  0  0  0  0
  -15.2582  -38.0837   -8.3771 C   0  0  0  0  0  0  0  0  0  0  0  0
  -14.3851  -38.9673   -8.1943 O   0  0  0  0  0  0  0  0  0  0  0  0
  -16.5720  -38.0472   -7.6753 C   0  0  2  0  0  0  0  0  0  0  0  0
  -16.3863  -37.0761   -6.5174 C   0  0  0  0  0  0  0  0  0  0  0  0
  -16.8830  -39.4199   -7.0632 C   0  0  0  0  0  0  0  0  0  0  0  0
  -17.1234  -40.4123   -8.1428 C   0  0  2  0  0  0  0  0  0  0  0  0
  -16.5271  -39.9374   -9.2998 O   0  0  0  0  0  0  0  0  0  0  0  0
  -18.5214  -40.8840   -8.3241 C   0  0  2  0  0  0  0  0  0  0  0  0
  -18.8925  -41.4090   -9.6595 C   0  0  0  0  0  0  0  0  0  0  0  0
  -18.2113  -42.5841  -10.2068 C   0  0  2  0  0  0  0  0  0  0  0  0
  -18.3900  -42.5024  -11.7407 C   0  0  0  0  0  0  0  0  0  0  0  0
  -18.6506  -43.9453   -9.7892 C   0  0  0  0  0  0  0  0  0  0  0  0
  -19.9791  -44.0144   -9.1430 C   0  0  0  0  0  0  0  0  0  0  0  0
  -20.5758  -45.3957   -9.0819 C   0  0  0  0  0  0  0  0  0  0  0  0
  -21.4771  -45.5149   -7.8456 C   0  0  0  0  0  0  0  0  0  0  0  0
  -22.8546  -45.0307   -8.1348 C   0  0  0  0  0  0  0  0  0  0  0  0
  -23.6499  -44.6268   -6.9042 C   0  0  0  0  0  0  0  0  0  0  0  0
  -22.8148  -44.0077   -5.9064 N   0  0  0  0  0  0  0  0  0  0  0  0
  -22.2196  -42.7098   -5.8387 C   0  0  0  0  0  0  0  0  0  0  0  0
  -21.6645  -41.8836   -6.7904 C   0  0  0  0  0  0  0  0  0  0  0  0
  -21.0875  -40.7033   -6.3406 C   0  0  0  0  0  0  0  0  0  0  0  0
  -21.1037  -40.4061   -4.9556 C   0  0  0  0  0  0  0  0  0  0  0  0
  -21.6657  -41.2387   -4.0176 C   0  0  0  0  0  0  0  0  0  0  0  0
  -22.1898  -42.3365   -4.4913 N   0  0  0  0  0  0  0  0  0  0  0  0
  -21.6581  -40.9013   -2.6618 O   0  0  0  0  0  0  0  0  0  0  0  0
  -22.2700  -41.6909   -1.6845 C   0  0  0  0  0  0  0  0  0  0  0  0
  -20.3486  -39.6466   -7.0521 C   0  0  0  0  0  0  0  0  0  0  0  0
  -20.5949  -38.4267   -6.6764 O   0  0  0  0  0  0  0  0  0  0  0  0
  -19.3976  -39.7207   -8.0900 N   0  0  0  0  0  0  0  0  0  0  0  0
  1  2  1  0
  2  3  1  0
  3  4  1  0
  4  5  1  0
  5  6  1  0
  6  7  2  0
  6  8  1  0
  8  9  1  1
  8 10  1  0
 10 11  1  0
 11 12  1  6
 11 13  1  0
 13 14  1  6
 14 15  1  0
 15 16  1  6
 15 17  1  0
 17 18  1  0
 18 19  1  0
 19 20  1  0
 20 21  1  0
 21 22  1  0
 22 23  1  0
 23 24  1  0
 24 25  2  0
 25 26  1  0
 26 27  2  0
 27 28  1  0
 28 29  2  0
 28 30  1  0
 30 31  1  0
 26 32  1  0
 32 33  2  0
 32 34  1  0
 29 24  1  0
 34 13  1  0
M  END
$$$$
