
     RDKit          3D

 34 35  0  0  0  0  0  0  0  0999 V2000
  -21.6713  -42.1295   -2.0753 C   0  0  0  0  0  0  0  0  0  0  0  0
  -20.3743  -41.4317   -2.3647 C   0  0  0  0  0  0  0  0  0  0  0  0
  -19.6875  -42.1069   -3.5588 C   0  0  0  0  0  0  0  0  0  0  0  0
  -20.4524  -41.7081   -4.8005 C   0  0  0  0  0  0  0  0  0  0  0  0
  -19.7830  -40.7148   -5.5883 N   0  0  0  0  0  0  0  0  0  0  0  0
  -18.5055  -40.9311   -6.1705 C   0  0  0  0  0  0  0  0  0  0  0  0
  -18.4110  -41.8248   -7.0473 O   0  0  0  0  0  0  0  0  0  0  0  0
  -17.3668  -40.0896   -5.7067 C   0  0  2  0  0  0  0  0  0  0  0  0
  -17.5218  -39.9950   -4.1951 C   0  0  0  0  0  0  0  0  0  0  0  0
  -17.5020  -38.6648   -6.2611 C   0  0  0  0  0  0  0  0  0  0  0  0
  -17.1490  -38.6480   -7.7045 C   0  0  2  0  0  0  0  0  0  0  0  0
  -16.2371  -37.6253   -7.9091 O   0  0  0  0  0  0  0  0  0  0  0  0
  -18.2766  -38.6655   -8.6731 C   0  0  2  0  0  0  0  0  0  0  0  0
  -18.8739  -37.3602   -9.0423 C   0  0  0  0  0  0  0  0  0  0  0  0
  -18.0606  -36.3348   -9.6990 C   0  0  2  0  0  0  0  0  0  0  0  0
  -18.7626  -34.9873   -9.4112 C   0  0  0  0  0  0  0  0  0  0  0  0
  -17.8419  -36.4059  -11.1712 C   0  0  0  0  0  0  0  0  0  0  0  0
  -18.7663  -37.2936  -11.9093 C   0  0  0  0  0  0  0  0  0  0  0  0
  -18.7991  -37.0669  -13.3976 C   0  0  0  0  0  0  0  0  0  0  0  0
  -19.1326  -38.3827  -14.1134 C   0  0  0  0  0  0  0  0  0  0  0  0
  -20.6040  -38.5889  -14.2034 C   0  0  0  0  0  0  0  0  0  0  0  0
  -21.0244  -40.0349  -14.4089 C   0  0  0  0  0  0  0  0  0  0  0  0
  -20.1657  -40.9483  -13.6986 N   0  0  0  0  0  0  0  0  0  0  0  0
  -20.0624  -41.2685  -12.3092 C   0  0  0  0  0  0  0  0  0  0  0  0
  -20.1775  -40.5135  -11.1634 C   0  0  0  0  0  0  0  0  0  0  0  0
  -19.9213  -41.1544   -9.9584 C   0  0  0  0  0  0  0  0  0  0  0  0
  -19.5695  -42.5266   -9.9627 C   0  0  0  0  0  0  0  0  0  0  0  0
  -19.4629  -43.2687  -11.1146 C   0  0  0  0  0  0  0  0  0  0  0  0
  -19.7089  -42.6187  -12.2197 N   0  0  0  0  0  0  0  0  0  0  0  0
  -19.1138  -44.6208  -11.0676 O   0  0  0  0  0  0  0  0  0  0  0  0
  -19.6968  -45.5797  -11.9005 C   0  0  0  0  0  0  0  0  0  0  0  0
  -19.8726  -40.6482   -8.5763 C   0  0  0  0  0  0  0  0  0  0  0  0
  -20.3773  -41.4268   -7.6657 O   0  0  0  0  0  0  0  0  0  0  0  0
  -19.3627  -39.4444   -8.0490 N   0  0  0  0  0  0  0  0  0  0  0  0
  1  2  1  0
  2  3  1  0
  3  4  1  0
  4  5  1  0
  5  6  1  0
  6  7  2  0
  6  8  1  0
  8  9  1  1
  8 10  1  0
 10 11  1  0
 11 12  1  1
 11 13  1  0
 13 14  1  1
 14 15  1  0
 15 16  1  6
 15 17  1  0
 17 18  1  0
 18 19  1  0
 19 20  1  0
 20 21  1  0
 21 22  1  0
 22 23  1  0
 23 24  1  0
 24 25  2  0
 25 26  1  0
 26 27  2  0
 27 28  1  0
 28 29  2  0
 28 30  1  0
 30 31  1  0
 26 32  1  0
 32 33  2  0
 32 34  1  0
 29 24  1  0
 34 13  1  0
M  END
$$$$
