
     RDKit          3D

 34 35  0  0  0  0  0  0  0  0999 V2000
  -10.9040  -40.0322  -13.2233 C   0  0  0  0  0  0  0  0  0  0  0  0
  -11.1790  -41.4419  -12.7872 C   0  0  0  0  0  0  0  0  0  0  0  0
  -11.8013  -41.4294  -11.3850 C   0  0  0  0  0  0  0  0  0  0  0  0
  -13.2544  -41.0425  -11.5426 C   0  0  0  0  0  0  0  0  0  0  0  0
  -13.6908  -40.0642  -10.5898 N   0  0  0  0  0  0  0  0  0  0  0  0
  -14.1400  -40.4098   -9.2874 C   0  0  0  0  0  0  0  0  0  0  0  0
  -14.1695  -41.6288   -8.9879 O   0  0  0  0  0  0  0  0  0  0  0  0
  -14.5448  -39.3113   -8.3657 C   0  0  2  0  0  0  0  0  0  0  0  0
  -13.3263  -39.0447   -7.4927 C   0  0  0  0  0  0  0  0  0  0  0  0
  -15.6673  -39.7892   -7.4343 C   0  0  0  0  0  0  0  0  0  0  0  0
  -16.9079  -40.0258   -8.2174 C   0  0  2  0  0  0  0  0  0  0  0  0
  -16.9931  -39.0424   -9.1897 O   0  0  0  0  0  0  0  0  0  0  0  0
  -18.1614  -40.2336   -7.4456 C   0  0  2  0  0  0  0  0  0  0  0  0
  -18.8762  -39.0237   -6.9743 C   0  0  0  0  0  0  0  0  0  0  0  0
  -19.3923  -38.0485   -7.9371 C   0  0  2  0  0  0  0  0  0  0  0  0
  -19.5263  -36.7170   -7.1623 C   0  0  0  0  0  0  0  0  0  0  0  0
  -20.7021  -38.2990   -8.6020 C   0  0  0  0  0  0  0  0  0  0  0  0
  -21.5531  -39.3265   -7.9636 C   0  0  0  0  0  0  0  0  0  0  0  0
  -22.9969  -39.2985   -8.3904 C   0  0  0  0  0  0  0  0  0  0  0  0
  -23.5861  -40.7134   -8.3128 C   0  0  0  0  0  0  0  0  0  0  0  0
  -24.0900  -41.0126   -6.9445 C   0  0  0  0  0  0  0  0  0  0  0  0
  -24.2066  -42.4945   -6.6281 C   0  0  0  0  0  0  0  0  0  0  0  0
  -23.1464  -43.2571   -7.2368 N   0  0  0  0  0  0  0  0  0  0  0  0
  -21.7609  -43.3866   -6.9091 C   0  0  0  0  0  0  0  0  0  0  0  0
  -20.8240  -42.4960   -6.4346 C   0  0  0  0  0  0  0  0  0  0  0  0
  -19.5201  -42.9583   -6.3137 C   0  0  0  0  0  0  0  0  0  0  0  0
  -19.2224  -44.2972   -6.6680 C   0  0  0  0  0  0  0  0  0  0  0  0
  -20.1694  -45.1762   -7.1362 C   0  0  0  0  0  0  0  0  0  0  0  0
  -21.3774  -44.6912   -7.2357 N   0  0  0  0  0  0  0  0  0  0  0  0
  -19.8271  -46.4886   -7.4718 O   0  0  0  0  0  0  0  0  0  0  0  0
  -20.5507  -47.5958   -7.0207 C   0  0  0  0  0  0  0  0  0  0  0  0
  -18.2754  -42.2738   -5.9251 C   0  0  0  0  0  0  0  0  0  0  0  0
  -17.4612  -42.9541   -5.1737 O   0  0  0  0  0  0  0  0  0  0  0  0
  -17.7942  -40.9845   -6.2303 N   0  0  0  0  0  0  0  0  0  0  0  0
  1  2  1  0
  2  3  1  0
  3  4  1  0
  4  5  1  0
  5  6  1  0
  6  7  2  0
  6  8  1  0
  8  9  1  1
  8 10  1  0
 10 11  1  0
 11 12  1  6
 11 13  1  0
 13 14  1  1
 14 15  1  0
 15 16  1  1
 15 17  1  0
 17 18  1  0
 18 19  1  0
 19 20  1  0
 20 21  1  0
 21 22  1  0
 22 23  1  0
 23 24  1  0
 24 25  2  0
 25 26  1  0
 26 27  2  0
 27 28  1  0
 28 29  2  0
 28 30  1  0
 30 31  1  0
 26 32  1  0
 32 33  2  0
 32 34  1  0
 29 24  1  0
 34 13  1  0
M  END
$$$$
