
     RDKit          3D

 34 35  0  0  0  0  0  0  0  0999 V2000
  -14.4888  -35.4934  -13.4092 C   0  0  0  0  0  0  0  0  0  0  0  0
  -14.7152  -36.9619  -13.6221 C   0  0  0  0  0  0  0  0  0  0  0  0
  -13.8726  -37.7585  -12.6177 C   0  0  0  0  0  0  0  0  0  0  0  0
  -14.7947  -38.1868  -11.4987 C   0  0  0  0  0  0  0  0  0  0  0  0
  -14.1044  -38.5251  -10.2886 N   0  0  0  0  0  0  0  0  0  0  0  0
  -14.1522  -39.8243   -9.7165 C   0  0  0  0  0  0  0  0  0  0  0  0
  -14.6228  -40.7515  -10.4203 O   0  0  0  0  0  0  0  0  0  0  0  0
  -13.6444  -40.0030   -8.3272 C   0  0  2  0  0  0  0  0  0  0  0  0
  -12.5129  -41.0159   -8.4362 C   0  0  0  0  0  0  0  0  0  0  0  0
  -14.7290  -40.6362   -7.4450 C   0  0  0  0  0  0  0  0  0  0  0  0
  -15.8628  -39.6899   -7.2799 C   0  0  2  0  0  0  0  0  0  0  0  0
  -15.6699  -38.9947   -6.0971 O   0  0  0  0  0  0  0  0  0  0  0  0
  -17.2319  -40.2444   -7.4475 C   0  0  2  0  0  0  0  0  0  0  0  0
  -18.3467  -39.5025   -6.8122 C   0  0  0  0  0  0  0  0  0  0  0  0
  -18.6381  -38.1237   -7.2102 C   0  0  2  0  0  0  0  0  0  0  0  0
  -19.3976  -37.4902   -6.0214 C   0  0  0  0  0  0  0  0  0  0  0  0
  -19.4532  -37.8712   -8.4317 C   0  0  0  0  0  0  0  0  0  0  0  0
  -20.2156  -39.0327   -8.9388 C   0  0  0  0  0  0  0  0  0  0  0  0
  -21.3141  -38.6867   -9.9090 C   0  0  0  0  0  0  0  0  0  0  0  0
  -21.5214  -39.8481  -10.8903 C   0  0  0  0  0  0  0  0  0  0  0  0
  -22.4565  -40.8634  -10.3332 C   0  0  0  0  0  0  0  0  0  0  0  0
  -22.3313  -42.2430  -10.9586 C   0  0  0  0  0  0  0  0  0  0  0  0
  -20.9645  -42.5600  -11.2870 N   0  0  0  0  0  0  0  0  0  0  0  0
  -19.8520  -42.9274  -10.4679 C   0  0  0  0  0  0  0  0  0  0  0  0
  -19.4404  -42.5310   -9.2151 C   0  0  0  0  0  0  0  0  0  0  0  0
  -18.2336  -43.0432   -8.7571 C   0  0  0  0  0  0  0  0  0  0  0  0
  -17.5022  -43.9365   -9.5780 C   0  0  0  0  0  0  0  0  0  0  0  0
  -17.9280  -44.3267  -10.8250 C   0  0  0  0  0  0  0  0  0  0  0  0
  -19.0649  -43.8135  -11.2103 N   0  0  0  0  0  0  0  0  0  0  0  0
  -17.1715  -45.2118  -11.5974 O   0  0  0  0  0  0  0  0  0  0  0  0
  -17.0427  -45.0832  -12.9831 C   0  0  0  0  0  0  0  0  0  0  0  0
  -17.4665  -42.7794   -7.5280 C   0  0  0  0  0  0  0  0  0  0  0  0
  -16.8974  -43.8111   -6.9786 O   0  0  0  0  0  0  0  0  0  0  0  0
  -17.2297  -41.5813   -6.8241 N   0  0  0  0  0  0  0  0  0  0  0  0
  1  2  1  0
  2  3  1  0
  3  4  1  0
  4  5  1  0
  5  6  1  0
  6  7  2  0
  6  8  1  0
  8  9  1  6
  8 10  1  0
 10 11  1  0
 11 12  1  1
 11 13  1  0
 13 14  1  1
 14 15  1  0
 15 16  1  1
 15 17  1  0
 17 18  1  0
 18 19  1  0
 19 20  1  0
 20 21  1  0
 21 22  1  0
 22 23  1  0
 23 24  1  0
 24 25  2  0
 25 26  1  0
 26 27  2  0
 27 28  1  0
 28 29  2  0
 28 30  1  0
 30 31  1  0
 26 32  1  0
 32 33  2  0
 32 34  1  0
 29 24  1  0
 34 13  1  0
M  END
$$$$
