
     RDKit          3D

 34 35  0  0  0  0  0  0  0  0999 V2000
  -15.4277  -35.9331  -14.2212 C   0  0  0  0  0  0  0  0  0  0  0  0
  -14.5452  -35.2222  -13.2368 C   0  0  0  0  0  0  0  0  0  0  0  0
  -14.9082  -35.6658  -11.8138 C   0  0  0  0  0  0  0  0  0  0  0  0
  -14.1112  -36.9157  -11.5165 C   0  0  0  0  0  0  0  0  0  0  0  0
  -14.2978  -37.4076  -10.1829 N   0  0  0  0  0  0  0  0  0  0  0  0
  -14.5544  -38.7756   -9.8995 C   0  0  0  0  0  0  0  0  0  0  0  0
  -14.9912  -39.4902  -10.8350 O   0  0  0  0  0  0  0  0  0  0  0  0
  -14.2909  -39.2721   -8.5197 C   0  0  2  0  0  0  0  0  0  0  0  0
  -12.9345  -39.9602   -8.5885 C   0  0  0  0  0  0  0  0  0  0  0  0
  -15.3192  -40.3460   -8.1386 C   0  0  0  0  0  0  0  0  0  0  0  0
  -16.6420  -39.7151   -7.8932 C   0  0  2  0  0  0  0  0  0  0  0  0
  -16.4355  -38.5679   -7.1443 O   0  0  0  0  0  0  0  0  0  0  0  0
  -17.7225  -40.5964   -7.3775 C   0  0  2  0  0  0  0  0  0  0  0  0
  -18.5359  -40.0834   -6.2497 C   0  0  0  0  0  0  0  0  0  0  0  0
  -19.3297  -38.8629   -6.4065 C   0  0  2  0  0  0  0  0  0  0  0  0
  -19.5493  -38.3128   -4.9780 C   0  0  0  0  0  0  0  0  0  0  0  0
  -20.6694  -38.9392   -7.0543 C   0  0  0  0  0  0  0  0  0  0  0  0
  -21.2515  -40.2952   -7.1534 C   0  0  0  0  0  0  0  0  0  0  0  0
  -22.7296  -40.3238   -7.4396 C   0  0  0  0  0  0  0  0  0  0  0  0
  -23.0791  -41.5947   -8.2255 C   0  0  0  0  0  0  0  0  0  0  0  0
  -23.3256  -42.7428   -7.3108 C   0  0  0  0  0  0  0  0  0  0  0  0
  -23.1681  -44.1081   -7.9597 C   0  0  0  0  0  0  0  0  0  0  0  0
  -22.1051  -44.1192   -8.9325 N   0  0  0  0  0  0  0  0  0  0  0  0
  -20.6832  -44.1233   -8.7851 C   0  0  0  0  0  0  0  0  0  0  0  0
  -19.8331  -43.5142   -7.8893 C   0  0  0  0  0  0  0  0  0  0  0  0
  -18.4706  -43.6721   -8.1066 C   0  0  0  0  0  0  0  0  0  0  0  0
  -18.0281  -44.4423   -9.2102 C   0  0  0  0  0  0  0  0  0  0  0  0
  -18.8890  -45.0482  -10.0937 C   0  0  0  0  0  0  0  0  0  0  0  0
  -20.1580  -44.8651   -9.8480 N   0  0  0  0  0  0  0  0  0  0  0  0
  -18.4041  -45.7994  -11.1675 O   0  0  0  0  0  0  0  0  0  0  0  0
  -18.8195  -47.1097  -11.4198 C   0  0  0  0  0  0  0  0  0  0  0  0
  -17.3009  -43.1081   -7.4119 C   0  0  0  0  0  0  0  0  0  0  0  0
  -16.2916  -43.9114   -7.2503 O   0  0  0  0  0  0  0  0  0  0  0  0
  -17.0712  -41.8230   -6.8803 N   0  0  0  0  0  0  0  0  0  0  0  0
  1  2  1  0
  2  3  1  0
  3  4  1  0
  4  5  1  0
  5  6  1  0
  6  7  2  0
  6  8  1  0
  8  9  1  6
  8 10  1  0
 10 11  1  0
 11 12  1  1
 11 13  1  0
 13 14  1  1
 14 15  1  0
 15 16  1  1
 15 17  1  0
 17 18  1  0
 18 19  1  0
 19 20  1  0
 20 21  1  0
 21 22  1  0
 22 23  1  0
 23 24  1  0
 24 25  2  0
 25 26  1  0
 26 27  2  0
 27 28  1  0
 28 29  2  0
 28 30  1  0
 30 31  1  0
 26 32  1  0
 32 33  2  0
 32 34  1  0
 29 24  1  0
 34 13  1  0
M  END
$$$$
