
     RDKit          3D

 34 35  0  0  0  0  0  0  0  0999 V2000
  -22.1238  -45.4585   -6.0571 C   0  0  0  0  0  0  0  0  0  0  0  0
  -22.0807  -43.9606   -6.1437 C   0  0  0  0  0  0  0  0  0  0  0  0
  -20.9906  -43.5387   -7.1374 C   0  0  0  0  0  0  0  0  0  0  0  0
  -20.3073  -42.3187   -6.5622 C   0  0  0  0  0  0  0  0  0  0  0  0
  -19.3681  -41.7141   -7.4610 N   0  0  0  0  0  0  0  0  0  0  0  0
  -19.3921  -40.3295   -7.7772 C   0  0  0  0  0  0  0  0  0  0  0  0
  -19.8303  -39.9996   -8.9066 O   0  0  0  0  0  0  0  0  0  0  0  0
  -18.8991  -39.3634   -6.7556 C   0  0  2  0  0  0  0  0  0  0  0  0
  -20.1498  -38.7587   -6.1325 C   0  0  0  0  0  0  0  0  0  0  0  0
  -18.1382  -38.2170   -7.4357 C   0  0  0  0  0  0  0  0  0  0  0  0
  -16.7702  -38.6660   -7.8035 C   0  0  2  0  0  0  0  0  0  0  0  0
  -15.8632  -37.9032   -7.0859 O   0  0  0  0  0  0  0  0  0  0  0  0
  -16.4653  -38.7754   -9.2543 C   0  0  2  0  0  0  0  0  0  0  0  0
  -17.0486  -37.7480  -10.1494 C   0  0  0  0  0  0  0  0  0  0  0  0
  -16.7024  -36.3356   -9.9772 C   0  0  2  0  0  0  0  0  0  0  0  0
  -17.8591  -35.5338  -10.6179 C   0  0  0  0  0  0  0  0  0  0  0  0
  -15.4352  -35.8158  -10.5638 C   0  0  0  0  0  0  0  0  0  0  0  0
  -14.8083  -36.6781  -11.5889 C   0  0  0  0  0  0  0  0  0  0  0  0
  -13.7737  -35.9901  -12.4398 C   0  0  0  0  0  0  0  0  0  0  0  0
  -12.7188  -37.0077  -12.8942 C   0  0  0  0  0  0  0  0  0  0  0  0
  -13.1453  -37.7067  -14.1372 C   0  0  0  0  0  0  0  0  0  0  0  0
  -12.4595  -39.0423  -14.3737 C   0  0  0  0  0  0  0  0  0  0  0  0
  -12.2243  -39.7493  -13.1404 N   0  0  0  0  0  0  0  0  0  0  0  0
  -13.1084  -40.4580  -12.2687 C   0  0  0  0  0  0  0  0  0  0  0  0
  -14.4093  -40.2382  -11.8741 C   0  0  0  0  0  0  0  0  0  0  0  0
  -14.9337  -41.1037  -10.9231 C   0  0  0  0  0  0  0  0  0  0  0  0
  -14.1273  -42.1543  -10.4205 C   0  0  0  0  0  0  0  0  0  0  0  0
  -12.8314  -42.3640  -10.8274 C   0  0  0  0  0  0  0  0  0  0  0  0
  -12.3849  -41.5207  -11.7183 N   0  0  0  0  0  0  0  0  0  0  0  0
  -12.0756  -43.4157  -10.3029 O   0  0  0  0  0  0  0  0  0  0  0  0
  -10.7349  -43.6219  -10.6389 C   0  0  0  0  0  0  0  0  0  0  0  0
  -16.2321  -41.1173  -10.2283 C   0  0  0  0  0  0  0  0  0  0  0  0
  -16.7695  -42.2872  -10.0468 O   0  0  0  0  0  0  0  0  0  0  0  0
  -17.0151  -40.0663   -9.7094 N   0  0  0  0  0  0  0  0  0  0  0  0
  1  2  1  0
  2  3  1  0
  3  4  1  0
  4  5  1  0
  5  6  1  0
  6  7  2  0
  6  8  1  0
  8  9  1  6
  8 10  1  0
 10 11  1  0
 11 12  1  6
 11 13  1  0
 13 14  1  6
 14 15  1  0
 15 16  1  6
 15 17  1  0
 17 18  1  0
 18 19  1  0
 19 20  1  0
 20 21  1  0
 21 22  1  0
 22 23  1  0
 23 24  1  0
 24 25  2  0
 25 26  1  0
 26 27  2  0
 27 28  1  0
 28 29  2  0
 28 30  1  0
 30 31  1  0
 26 32  1  0
 32 33  2  0
 32 34  1  0
 29 24  1  0
 34 13  1  0
M  END
$$$$
