
     RDKit          3D

 34 35  0  0  0  0  0  0  0  0999 V2000
  -13.9081  -34.5288  -11.9713 C   0  0  0  0  0  0  0  0  0  0  0  0
  -14.5795  -35.5264  -11.0730 C   0  0  0  0  0  0  0  0  0  0  0  0
  -13.5898  -36.6455  -10.7243 C   0  0  0  0  0  0  0  0  0  0  0  0
  -13.5728  -37.6085  -11.8897 C   0  0  0  0  0  0  0  0  0  0  0  0
  -14.2341  -38.8501  -11.6134 N   0  0  0  0  0  0  0  0  0  0  0  0
  -13.5680  -39.9593  -11.0273 C   0  0  0  0  0  0  0  0  0  0  0  0
  -12.6544  -40.5058  -11.6929 O   0  0  0  0  0  0  0  0  0  0  0  0
  -13.9930  -40.4008   -9.6692 C   0  0  2  0  0  0  0  0  0  0  0  0
  -12.7060  -40.5463   -8.8689 C   0  0  0  0  0  0  0  0  0  0  0  0
  -14.6348  -41.7931   -9.7424 C   0  0  0  0  0  0  0  0  0  0  0  0
  -15.7297  -41.8985   -8.7432 C   0  0  2  0  0  0  0  0  0  0  0  0
  -15.6442  -43.1458   -8.1461 O   0  0  0  0  0  0  0  0  0  0  0  0
  -17.0957  -41.5313   -9.2005 C   0  0  2  0  0  0  0  0  0  0  0  0
  -17.7448  -42.4278  -10.1863 C   0  0  0  0  0  0  0  0  0  0  0  0
  -18.0157  -43.8263   -9.8469 C   0  0  2  0  0  0  0  0  0  0  0  0
  -18.1244  -44.5768  -11.1945 C   0  0  0  0  0  0  0  0  0  0  0  0
  -19.2347  -44.1657   -9.0601 C   0  0  0  0  0  0  0  0  0  0  0  0
  -20.2682  -43.1094   -9.0014 C   0  0  0  0  0  0  0  0  0  0  0  0
  -21.6253  -43.5840   -8.5534 C   0  0  0  0  0  0  0  0  0  0  0  0
  -22.3595  -42.4446   -7.8340 C   0  0  0  0  0  0  0  0  0  0  0  0
  -23.0828  -41.5746   -8.8013 C   0  0  0  0  0  0  0  0  0  0  0  0
  -23.3931  -40.1803   -8.2821 C   0  0  0  0  0  0  0  0  0  0  0  0
  -22.3389  -39.6759   -7.4391 N   0  0  0  0  0  0  0  0  0  0  0  0
  -21.0353  -39.1756   -7.7457 C   0  0  0  0  0  0  0  0  0  0  0  0
  -20.0911  -39.5342   -8.6817 C   0  0  0  0  0  0  0  0  0  0  0  0
  -18.8718  -38.8715   -8.6322 C   0  0  0  0  0  0  0  0  0  0  0  0
  -18.6631  -37.8737   -7.6486 C   0  0  0  0  0  0  0  0  0  0  0  0
  -19.6170  -37.5233   -6.7233 C   0  0  0  0  0  0  0  0  0  0  0  0
  -20.7427  -38.1787   -6.8095 N   0  0  0  0  0  0  0  0  0  0  0  0
  -19.3643  -36.5310   -5.7725 O   0  0  0  0  0  0  0  0  0  0  0  0
  -20.3806  -35.9142   -5.0378 C   0  0  0  0  0  0  0  0  0  0  0  0
  -17.6331  -39.0503   -9.4085 C   0  0  0  0  0  0  0  0  0  0  0  0
  -17.0086  -37.9607   -9.7446 O   0  0  0  0  0  0  0  0  0  0  0  0
  -16.9851  -40.2173   -9.8615 N   0  0  0  0  0  0  0  0  0  0  0  0
  1  2  1  0
  2  3  1  0
  3  4  1  0
  4  5  1  0
  5  6  1  0
  6  7  2  0
  6  8  1  0
  8  9  1  1
  8 10  1  0
 10 11  1  0
 11 12  1  6
 11 13  1  0
 13 14  1  6
 14 15  1  0
 15 16  1  6
 15 17  1  0
 17 18  1  0
 18 19  1  0
 19 20  1  0
 20 21  1  0
 21 22  1  0
 22 23  1  0
 23 24  1  0
 24 25  2  0
 25 26  1  0
 26 27  2  0
 27 28  1  0
 28 29  2  0
 28 30  1  0
 30 31  1  0
 26 32  1  0
 32 33  2  0
 32 34  1  0
 29 24  1  0
 34 13  1  0
M  END
$$$$
