
     RDKit          3D

 34 35  0  0  0  0  0  0  0  0999 V2000
  -16.8485  -34.8850  -11.9149 C   0  0  0  0  0  0  0  0  0  0  0  0
  -15.3646  -34.7386  -12.0867 C   0  0  0  0  0  0  0  0  0  0  0  0
  -14.7519  -36.1066  -12.4139 C   0  0  0  0  0  0  0  0  0  0  0  0
  -14.6160  -36.8605  -11.1103 C   0  0  0  0  0  0  0  0  0  0  0  0
  -14.3279  -38.2540  -11.2847 N   0  0  0  0  0  0  0  0  0  0  0  0
  -15.0811  -39.2776  -10.6504 C   0  0  0  0  0  0  0  0  0  0  0  0
  -16.0263  -39.7896  -11.2992 O   0  0  0  0  0  0  0  0  0  0  0  0
  -14.7043  -39.6759   -9.2650 C   0  0  2  0  0  0  0  0  0  0  0  0
  -13.5191  -40.6185   -9.4223 C   0  0  0  0  0  0  0  0  0  0  0  0
  -15.8381  -40.4853   -8.6206 C   0  0  0  0  0  0  0  0  0  0  0  0
  -16.8158  -39.5664   -7.9819 C   0  0  2  0  0  0  0  0  0  0  0  0
  -16.1144  -38.7056   -7.1532 O   0  0  0  0  0  0  0  0  0  0  0  0
  -18.0093  -40.1876   -7.3497 C   0  0  2  0  0  0  0  0  0  0  0  0
  -19.0371  -39.2738   -6.7971 C   0  0  0  0  0  0  0  0  0  0  0  0
  -19.7399  -38.3354   -7.6744 C   0  0  2  0  0  0  0  0  0  0  0  0
  -20.2545  -37.2013   -6.7577 C   0  0  0  0  0  0  0  0  0  0  0  0
  -20.9042  -38.8118   -8.4730 C   0  0  0  0  0  0  0  0  0  0  0  0
  -21.4896  -40.0985   -8.0383 C   0  0  0  0  0  0  0  0  0  0  0  0
  -22.8676  -40.3751   -8.5789 C   0  0  0  0  0  0  0  0  0  0  0  0
  -23.0715  -41.8891   -8.7238 C   0  0  0  0  0  0  0  0  0  0  0  0
  -23.5486  -42.4926   -7.4495 C   0  0  0  0  0  0  0  0  0  0  0  0
  -23.2915  -43.9855   -7.3263 C   0  0  0  0  0  0  0  0  0  0  0  0
  -22.0400  -44.3650   -7.9315 N   0  0  0  0  0  0  0  0  0  0  0  0
  -20.6870  -44.1866   -7.5060 C   0  0  0  0  0  0  0  0  0  0  0  0
  -20.0391  -43.1642   -6.8495 C   0  0  0  0  0  0  0  0  0  0  0  0
  -18.6676  -43.2964   -6.6759 C   0  0  0  0  0  0  0  0  0  0  0  0
  -18.0144  -44.4548   -7.1638 C   0  0  0  0  0  0  0  0  0  0  0  0
  -18.6753  -45.4696   -7.8136 C   0  0  0  0  0  0  0  0  0  0  0  0
  -19.9612  -45.2945   -7.9552 N   0  0  0  0  0  0  0  0  0  0  0  0
  -17.9868  -46.5940   -8.2760 O   0  0  0  0  0  0  0  0  0  0  0  0
  -17.9343  -46.9430   -9.6282 C   0  0  0  0  0  0  0  0  0  0  0  0
  -17.6650  -42.3821   -6.1034 C   0  0  0  0  0  0  0  0  0  0  0  0
  -16.7409  -42.9337   -5.3741 O   0  0  0  0  0  0  0  0  0  0  0  0
  -17.5211  -40.9837   -6.2079 N   0  0  0  0  0  0  0  0  0  0  0  0
  1  2  1  0
  2  3  1  0
  3  4  1  0
  4  5  1  0
  5  6  1  0
  6  7  2  0
  6  8  1  0
  8  9  1  6
  8 10  1  0
 10 11  1  0
 11 12  1  1
 11 13  1  0
 13 14  1  1
 14 15  1  0
 15 16  1  1
 15 17  1  0
 17 18  1  0
 18 19  1  0
 19 20  1  0
 20 21  1  0
 21 22  1  0
 22 23  1  0
 23 24  1  0
 24 25  2  0
 25 26  1  0
 26 27  2  0
 27 28  1  0
 28 29  2  0
 28 30  1  0
 30 31  1  0
 26 32  1  0
 32 33  2  0
 32 34  1  0
 29 24  1  0
 34 13  1  0
M  END
$$$$
