
     RDKit          3D

 34 35  0  0  0  0  0  0  0  0999 V2000
  -24.1116  -43.2905   -5.1713 C   0  0  0  0  0  0  0  0  0  0  0  0
  -22.7436  -42.8563   -4.7319 C   0  0  0  0  0  0  0  0  0  0  0  0
  -22.4202  -41.4892   -5.3485 C   0  0  0  0  0  0  0  0  0  0  0  0
  -20.9224  -41.3016   -5.2627 C   0  0  0  0  0  0  0  0  0  0  0  0
  -20.5026  -39.9504   -5.4938 N   0  0  0  0  0  0  0  0  0  0  0  0
  -20.1098  -39.4783   -6.7746 C   0  0  0  0  0  0  0  0  0  0  0  0
  -20.8727  -39.7211   -7.7418 O   0  0  0  0  0  0  0  0  0  0  0  0
  -18.8263  -38.7302   -6.8881 C   0  0  2  0  0  0  0  0  0  0  0  0
  -19.2023  -37.2596   -6.7692 C   0  0  0  0  0  0  0  0  0  0  0  0
  -18.2216  -38.9264   -8.2851 C   0  0  0  0  0  0  0  0  0  0  0  0
  -16.7642  -39.1940   -8.1723 C   0  0  2  0  0  0  0  0  0  0  0  0
  -16.1603  -38.0587   -7.6568 O   0  0  0  0  0  0  0  0  0  0  0  0
  -16.0885  -39.7558   -9.3714 C   0  0  2  0  0  0  0  0  0  0  0  0
  -15.1322  -38.8769  -10.0853 C   0  0  0  0  0  0  0  0  0  0  0  0
  -13.9402  -38.3721   -9.4008 C   0  0  2  0  0  0  0  0  0  0  0  0
  -13.5178  -37.0975  -10.1680 C   0  0  0  0  0  0  0  0  0  0  0  0
  -12.7326  -39.2390   -9.2988 C   0  0  0  0  0  0  0  0  0  0  0  0
  -12.7022  -40.3978  -10.2172 C   0  0  0  0  0  0  0  0  0  0  0  0
  -11.3452  -41.0281  -10.3870 C   0  0  0  0  0  0  0  0  0  0  0  0
  -11.5045  -42.5247  -10.6865 C   0  0  0  0  0  0  0  0  0  0  0  0
  -11.6984  -42.7648  -12.1427 C   0  0  0  0  0  0  0  0  0  0  0  0
  -12.3620  -44.0904  -12.4780 C   0  0  0  0  0  0  0  0  0  0  0  0
  -13.3601  -44.4512  -11.5033 N   0  0  0  0  0  0  0  0  0  0  0  0
  -14.6785  -43.9525  -11.2650 C   0  0  0  0  0  0  0  0  0  0  0  0
  -15.2304  -42.6930  -11.3378 C   0  0  0  0  0  0  0  0  0  0  0  0
  -16.5545  -42.5617  -10.9404 C   0  0  0  0  0  0  0  0  0  0  0  0
  -17.2631  -43.7052  -10.4966 C   0  0  0  0  0  0  0  0  0  0  0  0
  -16.7000  -44.9573  -10.4336 C   0  0  0  0  0  0  0  0  0  0  0  0
  -15.4528  -45.0260  -10.8132 N   0  0  0  0  0  0  0  0  0  0  0  0
  -17.4405  -46.0559   -9.9896 O   0  0  0  0  0  0  0  0  0  0  0  0
  -16.8679  -47.3111   -9.7669 C   0  0  0  0  0  0  0  0  0  0  0  0
  -17.4213  -41.3778  -10.8138 C   0  0  0  0  0  0  0  0  0  0  0  0
  -18.6567  -41.5330  -11.1877 O   0  0  0  0  0  0  0  0  0  0  0  0
  -17.1477  -40.0763  -10.3466 N   0  0  0  0  0  0  0  0  0  0  0  0
  1  2  1  0
  2  3  1  0
  3  4  1  0
  4  5  1  0
  5  6  1  0
  6  7  2  0
  6  8  1  0
  8  9  1  6
  8 10  1  0
 10 11  1  0
 11 12  1  6
 11 13  1  0
 13 14  1  6
 14 15  1  0
 15 16  1  6
 15 17  1  0
 17 18  1  0
 18 19  1  0
 19 20  1  0
 20 21  1  0
 21 22  1  0
 22 23  1  0
 23 24  1  0
 24 25  2  0
 25 26  1  0
 26 27  2  0
 27 28  1  0
 28 29  2  0
 28 30  1  0
 30 31  1  0
 26 32  1  0
 32 33  2  0
 32 34  1  0
 29 24  1  0
 34 13  1  0
M  END
$$$$
