
     RDKit          3D

 34 35  0  0  0  0  0  0  0  0999 V2000
  -20.2872  -45.4534   -7.8728 C   0  0  0  0  0  0  0  0  0  0  0  0
  -19.7912  -44.3121   -7.0337 C   0  0  0  0  0  0  0  0  0  0  0  0
  -20.7200  -43.1046   -7.2151 C   0  0  0  0  0  0  0  0  0  0  0  0
  -20.1302  -41.9616   -6.4204 C   0  0  0  0  0  0  0  0  0  0  0  0
  -20.4976  -40.6694   -6.9210 N   0  0  0  0  0  0  0  0  0  0  0  0
  -19.5770  -39.8137   -7.5826 C   0  0  0  0  0  0  0  0  0  0  0  0
  -19.2798  -40.0887   -8.7711 O   0  0  0  0  0  0  0  0  0  0  0  0
  -19.0262  -38.6521   -6.8293 C   0  0  2  0  0  0  0  0  0  0  0  0
  -20.1651  -37.6449   -6.7479 C   0  0  0  0  0  0  0  0  0  0  0  0
  -17.8980  -37.9888   -7.6310 C   0  0  0  0  0  0  0  0  0  0  0  0
  -16.9411  -39.0213   -8.1070 C   0  0  2  0  0  0  0  0  0  0  0  0
  -15.8014  -38.9407   -7.3233 O   0  0  0  0  0  0  0  0  0  0  0  0
  -16.6764  -39.0705   -9.5690 C   0  0  2  0  0  0  0  0  0  0  0  0
  -16.9578  -37.8432  -10.3509 C   0  0  0  0  0  0  0  0  0  0  0  0
  -16.2408  -36.6003  -10.0585 C   0  0  2  0  0  0  0  0  0  0  0  0
  -17.1355  -35.4581  -10.5935 C   0  0  0  0  0  0  0  0  0  0  0  0
  -14.8796  -36.3895  -10.6266 C   0  0  0  0  0  0  0  0  0  0  0  0
  -14.5100  -37.2875  -11.7421 C   0  0  0  0  0  0  0  0  0  0  0  0
  -13.3267  -36.8275  -12.5520 C   0  0  0  0  0  0  0  0  0  0  0  0
  -12.5879  -38.0446  -13.1245 C   0  0  0  0  0  0  0  0  0  0  0  0
  -13.1875  -38.4805  -14.4153 C   0  0  0  0  0  0  0  0  0  0  0  0
  -12.8905  -39.9230  -14.7907 C   0  0  0  0  0  0  0  0  0  0  0  0
  -12.8572  -40.7814  -13.6338 N   0  0  0  0  0  0  0  0  0  0  0  0
  -13.9013  -41.3039  -12.8089 C   0  0  0  0  0  0  0  0  0  0  0  0
  -15.0937  -40.7789  -12.3630 C   0  0  0  0  0  0  0  0  0  0  0  0
  -15.8343  -41.5566  -11.4826 C   0  0  0  0  0  0  0  0  0  0  0  0
  -15.3442  -42.8291  -11.0991 C   0  0  0  0  0  0  0  0  0  0  0  0
  -14.1539  -43.3420  -11.5561 C   0  0  0  0  0  0  0  0  0  0  0  0
  -13.4943  -42.5702  -12.3767 N   0  0  0  0  0  0  0  0  0  0  0  0
  -13.7128  -44.6040  -11.1496 O   0  0  0  0  0  0  0  0  0  0  0  0
  -12.8308  -45.3759  -11.9106 C   0  0  0  0  0  0  0  0  0  0  0  0
  -17.0880  -41.2843  -10.7594 C   0  0  0  0  0  0  0  0  0  0  0  0
  -17.9233  -42.2768  -10.6726 O   0  0  0  0  0  0  0  0  0  0  0  0
  -17.5561  -40.1149  -10.1266 N   0  0  0  0  0  0  0  0  0  0  0  0
  1  2  1  0
  2  3  1  0
  3  4  1  0
  4  5  1  0
  5  6  1  0
  6  7  2  0
  6  8  1  0
  8  9  1  6
  8 10  1  0
 10 11  1  0
 11 12  1  1
 11 13  1  0
 13 14  1  6
 14 15  1  0
 15 16  1  6
 15 17  1  0
 17 18  1  0
 18 19  1  0
 19 20  1  0
 20 21  1  0
 21 22  1  0
 22 23  1  0
 23 24  1  0
 24 25  2  0
 25 26  1  0
 26 27  2  0
 27 28  1  0
 28 29  2  0
 28 30  1  0
 30 31  1  0
 26 32  1  0
 32 33  2  0
 32 34  1  0
 29 24  1  0
 34 13  1  0
M  END
$$$$
