
     RDKit          3D

 34 35  0  0  0  0  0  0  0  0999 V2000
  -15.3440  -35.7492  -13.4156 C   0  0  0  0  0  0  0  0  0  0  0  0
  -16.1492  -35.5092  -12.1719 C   0  0  0  0  0  0  0  0  0  0  0  0
  -16.1008  -36.7594  -11.2841 C   0  0  0  0  0  0  0  0  0  0  0  0
  -14.6599  -36.9625  -10.8737 C   0  0  0  0  0  0  0  0  0  0  0  0
  -14.4453  -38.1627  -10.1195 N   0  0  0  0  0  0  0  0  0  0  0  0
  -15.1566  -38.4549   -8.9252 C   0  0  0  0  0  0  0  0  0  0  0  0
  -16.1197  -37.7072   -8.6255 O   0  0  0  0  0  0  0  0  0  0  0  0
  -14.7175  -39.6219   -8.1096 C   0  0  2  0  0  0  0  0  0  0  0  0
  -13.2214  -39.7518   -8.3603 C   0  0  0  0  0  0  0  0  0  0  0  0
  -15.3724  -40.9082   -8.6314 C   0  0  0  0  0  0  0  0  0  0  0  0
  -16.3391  -41.4263   -7.6287 C   0  0  2  0  0  0  0  0  0  0  0  0
  -15.8493  -42.6286   -7.1450 O   0  0  0  0  0  0  0  0  0  0  0  0
  -17.7697  -41.4656   -8.0309 C   0  0  2  0  0  0  0  0  0  0  0  0
  -18.0744  -41.9150   -9.4101 C   0  0  0  0  0  0  0  0  0  0  0  0
  -17.7058  -43.2635   -9.8461 C   0  0  2  0  0  0  0  0  0  0  0  0
  -17.6157  -43.2011  -11.3886 C   0  0  0  0  0  0  0  0  0  0  0  0
  -18.5946  -44.4106   -9.5079 C   0  0  0  0  0  0  0  0  0  0  0  0
  -19.9638  -44.0498   -9.0809 C   0  0  0  0  0  0  0  0  0  0  0  0
  -20.9525  -45.1850   -9.1197 C   0  0  0  0  0  0  0  0  0  0  0  0
  -22.0247  -44.9733   -8.0425 C   0  0  0  0  0  0  0  0  0  0  0  0
  -23.1303  -44.1126   -8.5450 C   0  0  0  0  0  0  0  0  0  0  0  0
  -23.9437  -43.4343   -7.4549 C   0  0  0  0  0  0  0  0  0  0  0  0
  -23.1225  -43.0493   -6.3352 N   0  0  0  0  0  0  0  0  0  0  0  0
  -22.1799  -41.9873   -6.1698 C   0  0  0  0  0  0  0  0  0  0  0  0
  -21.2628  -41.4088   -7.0186 C   0  0  0  0  0  0  0  0  0  0  0  0
  -20.4313  -40.4362   -6.4792 C   0  0  0  0  0  0  0  0  0  0  0  0
  -20.5674  -40.0859   -5.1133 C   0  0  0  0  0  0  0  0  0  0  0  0
  -21.4908  -40.6691   -4.2791 C   0  0  0  0  0  0  0  0  0  0  0  0
  -22.2441  -41.5799   -4.8335 N   0  0  0  0  0  0  0  0  0  0  0  0
  -21.5879  -40.2887   -2.9381 O   0  0  0  0  0  0  0  0  0  0  0  0
  -22.8138  -40.1231   -2.2879 C   0  0  0  0  0  0  0  0  0  0  0  0
  -19.3080  -39.6822   -7.0610 C   0  0  0  0  0  0  0  0  0  0  0  0
  -19.2277  -38.4289   -6.7252 O   0  0  0  0  0  0  0  0  0  0  0  0
  -18.2776  -40.0841   -7.9350 N   0  0  0  0  0  0  0  0  0  0  0  0
  1  2  1  0
  2  3  1  0
  3  4  1  0
  4  5  1  0
  5  6  1  0
  6  7  2  0
  6  8  1  0
  8  9  1  6
  8 10  1  0
 10 11  1  0
 11 12  1  6
 11 13  1  0
 13 14  1  6
 14 15  1  0
 15 16  1  6
 15 17  1  0
 17 18  1  0
 18 19  1  0
 19 20  1  0
 20 21  1  0
 21 22  1  0
 22 23  1  0
 23 24  1  0
 24 25  2  0
 25 26  1  0
 26 27  2  0
 27 28  1  0
 28 29  2  0
 28 30  1  0
 30 31  1  0
 26 32  1  0
 32 33  2  0
 32 34  1  0
 29 24  1  0
 34 13  1  0
M  END
$$$$
