
     RDKit          3D

 34 35  0  0  0  0  0  0  0  0999 V2000
   -9.7842  -37.2960  -11.0862 C   0  0  0  0  0  0  0  0  0  0  0  0
  -11.1431  -36.6621  -11.1554 C   0  0  0  0  0  0  0  0  0  0  0  0
  -12.1471  -37.6701  -11.7294 C   0  0  0  0  0  0  0  0  0  0  0  0
  -12.7982  -38.3710  -10.5586 C   0  0  0  0  0  0  0  0  0  0  0  0
  -14.1606  -38.7443  -10.8030 N   0  0  0  0  0  0  0  0  0  0  0  0
  -15.2467  -37.8489  -10.6121 C   0  0  0  0  0  0  0  0  0  0  0  0
  -15.0118  -36.7710  -10.0127 O   0  0  0  0  0  0  0  0  0  0  0  0
  -16.5863  -38.2433  -11.1316 C   0  0  2  0  0  0  0  0  0  0  0  0
  -17.1246  -37.0094  -11.8429 C   0  0  0  0  0  0  0  0  0  0  0  0
  -17.5394  -38.5398   -9.9657 C   0  0  0  0  0  0  0  0  0  0  0  0
  -17.3100  -39.9194   -9.4632 C   0  0  2  0  0  0  0  0  0  0  0  0
  -17.4169  -40.7881  -10.5372 O   0  0  0  0  0  0  0  0  0  0  0  0
  -18.0801  -40.3344   -8.2613 C   0  0  2  0  0  0  0  0  0  0  0  0
  -18.4937  -39.2677   -7.3190 C   0  0  0  0  0  0  0  0  0  0  0  0
  -19.3812  -38.1916   -7.7646 C   0  0  2  0  0  0  0  0  0  0  0  0
  -19.1384  -37.0119   -6.7947 C   0  0  0  0  0  0  0  0  0  0  0  0
  -20.8522  -38.4258   -7.8056 C   0  0  0  0  0  0  0  0  0  0  0  0
  -21.3309  -39.5986   -7.0424 C   0  0  0  0  0  0  0  0  0  0  0  0
  -22.8112  -39.6056   -6.7664 C   0  0  0  0  0  0  0  0  0  0  0  0
  -23.3137  -41.0530   -6.6793 C   0  0  0  0  0  0  0  0  0  0  0  0
  -23.1463  -41.5994   -5.3048 C   0  0  0  0  0  0  0  0  0  0  0  0
  -23.1199  -43.1172   -5.2310 C   0  0  0  0  0  0  0  0  0  0  0  0
  -22.4567  -43.6973   -6.3712 N   0  0  0  0  0  0  0  0  0  0  0  0
  -21.0741  -43.7788   -6.7255 C   0  0  0  0  0  0  0  0  0  0  0  0
  -20.0162  -42.9104   -6.5742 C   0  0  0  0  0  0  0  0  0  0  0  0
  -18.8029  -43.2928   -7.1311 C   0  0  0  0  0  0  0  0  0  0  0  0
  -18.7094  -44.5345   -7.8065 C   0  0  0  0  0  0  0  0  0  0  0  0
  -19.7734  -45.3932   -7.9457 C   0  0  0  0  0  0  0  0  0  0  0  0
  -20.8913  -44.9850   -7.4091 N   0  0  0  0  0  0  0  0  0  0  0  0
  -19.6314  -46.6086   -8.6202 O   0  0  0  0  0  0  0  0  0  0  0  0
  -20.6978  -47.4896   -8.8196 C   0  0  0  0  0  0  0  0  0  0  0  0
  -17.5112  -42.5921   -7.2285 C   0  0  0  0  0  0  0  0  0  0  0  0
  -16.4510  -43.3233   -7.0507 O   0  0  0  0  0  0  0  0  0  0  0  0
  -17.2091  -41.2401   -7.4887 N   0  0  0  0  0  0  0  0  0  0  0  0
  1  2  1  0
  2  3  1  0
  3  4  1  0
  4  5  1  0
  5  6  1  0
  6  7  2  0
  6  8  1  0
  8  9  1  1
  8 10  1  0
 10 11  1  0
 11 12  1  6
 11 13  1  0
 13 14  1  1
 14 15  1  0
 15 16  1  1
 15 17  1  0
 17 18  1  0
 18 19  1  0
 19 20  1  0
 20 21  1  0
 21 22  1  0
 22 23  1  0
 23 24  1  0
 24 25  2  0
 25 26  1  0
 26 27  2  0
 27 28  1  0
 28 29  2  0
 28 30  1  0
 30 31  1  0
 26 32  1  0
 32 33  2  0
 32 34  1  0
 29 24  1  0
 34 13  1  0
M  END
$$$$
