
     RDKit          3D

 34 35  0  0  0  0  0  0  0  0999 V2000
  -15.4826  -34.5561  -12.0100 C   0  0  0  0  0  0  0  0  0  0  0  0
  -14.1232  -34.9693  -11.5260 C   0  0  0  0  0  0  0  0  0  0  0  0
  -13.5809  -36.0887  -12.4240 C   0  0  0  0  0  0  0  0  0  0  0  0
  -14.4375  -37.3112  -12.1837 C   0  0  0  0  0  0  0  0  0  0  0  0
  -14.2550  -37.8892  -10.8845 N   0  0  0  0  0  0  0  0  0  0  0  0
  -14.7401  -39.1803  -10.5450 C   0  0  0  0  0  0  0  0  0  0  0  0
  -15.4649  -39.7675  -11.3854 O   0  0  0  0  0  0  0  0  0  0  0  0
  -14.3606  -39.7517   -9.2223 C   0  0  2  0  0  0  0  0  0  0  0  0
  -13.2654  -40.7670   -9.5185 C   0  0  0  0  0  0  0  0  0  0  0  0
  -15.5412  -40.5281   -8.6233 C   0  0  0  0  0  0  0  0  0  0  0  0
  -16.5406  -39.5792   -8.0672 C   0  0  2  0  0  0  0  0  0  0  0  0
  -15.8615  -38.6405   -7.3075 O   0  0  0  0  0  0  0  0  0  0  0  0
  -17.7268  -40.1697   -7.3934 C   0  0  2  0  0  0  0  0  0  0  0  0
  -18.6952  -39.2309   -6.7789 C   0  0  0  0  0  0  0  0  0  0  0  0
  -19.4014  -38.2510   -7.6068 C   0  0  2  0  0  0  0  0  0  0  0  0
  -19.8333  -37.1174   -6.6478 C   0  0  0  0  0  0  0  0  0  0  0  0
  -20.6164  -38.6699   -8.3607 C   0  0  0  0  0  0  0  0  0  0  0  0
  -21.2286  -39.9432   -7.9234 C   0  0  0  0  0  0  0  0  0  0  0  0
  -22.6384  -40.1598   -8.4064 C   0  0  0  0  0  0  0  0  0  0  0  0
  -22.9036  -41.6625   -8.5691 C   0  0  0  0  0  0  0  0  0  0  0  0
  -23.3456  -42.2734   -7.2857 C   0  0  0  0  0  0  0  0  0  0  0  0
  -23.1379  -43.7766   -7.2010 C   0  0  0  0  0  0  0  0  0  0  0  0
  -21.9291  -44.1886   -7.8684 N   0  0  0  0  0  0  0  0  0  0  0  0
  -20.5529  -44.0669   -7.5010 C   0  0  0  0  0  0  0  0  0  0  0  0
  -19.8398  -43.0812   -6.8560 C   0  0  0  0  0  0  0  0  0  0  0  0
  -18.4678  -43.2656   -6.7465 C   0  0  0  0  0  0  0  0  0  0  0  0
  -17.8794  -44.4368   -7.2840 C   0  0  0  0  0  0  0  0  0  0  0  0
  -18.6050  -45.4145   -7.9215 C   0  0  0  0  0  0  0  0  0  0  0  0
  -19.8887  -45.1910   -8.0021 N   0  0  0  0  0  0  0  0  0  0  0  0
  -17.9791  -46.5535   -8.4345 O   0  0  0  0  0  0  0  0  0  0  0  0
  -18.6690  -47.7408   -8.6944 C   0  0  0  0  0  0  0  0  0  0  0  0
  -17.4081  -42.3990   -6.2033 C   0  0  0  0  0  0  0  0  0  0  0  0
  -16.4734  -42.9974   -5.5263 O   0  0  0  0  0  0  0  0  0  0  0  0
  -17.2180  -41.0049   -6.2891 N   0  0  0  0  0  0  0  0  0  0  0  0
  1  2  1  0
  2  3  1  0
  3  4  1  0
  4  5  1  0
  5  6  1  0
  6  7  2  0
  6  8  1  0
  8  9  1  6
  8 10  1  0
 10 11  1  0
 11 12  1  1
 11 13  1  0
 13 14  1  1
 14 15  1  0
 15 16  1  1
 15 17  1  0
 17 18  1  0
 18 19  1  0
 19 20  1  0
 20 21  1  0
 21 22  1  0
 22 23  1  0
 23 24  1  0
 24 25  2  0
 25 26  1  0
 26 27  2  0
 27 28  1  0
 28 29  2  0
 28 30  1  0
 30 31  1  0
 26 32  1  0
 32 33  2  0
 32 34  1  0
 29 24  1  0
 34 13  1  0
M  END
$$$$
