
     RDKit          3D

 34 35  0  0  0  0  0  0  0  0999 V2000
  -14.1014  -37.0950  -13.5783 C   0  0  0  0  0  0  0  0  0  0  0  0
  -14.6438  -36.6752  -12.2432 C   0  0  0  0  0  0  0  0  0  0  0  0
  -14.0973  -37.6080  -11.1547 C   0  0  0  0  0  0  0  0  0  0  0  0
  -14.5793  -39.0044  -11.4773 C   0  0  0  0  0  0  0  0  0  0  0  0
  -14.0673  -40.0045  -10.5868 N   0  0  0  0  0  0  0  0  0  0  0  0
  -14.7463  -40.3962   -9.4024 C   0  0  0  0  0  0  0  0  0  0  0  0
  -15.7828  -41.0931   -9.5309 O   0  0  0  0  0  0  0  0  0  0  0  0
  -14.1894  -39.9581   -8.0916 C   0  0  2  0  0  0  0  0  0  0  0  0
  -13.0692  -40.9405   -7.7784 C   0  0  0  0  0  0  0  0  0  0  0  0
  -15.2453  -40.1162   -6.9890 C   0  0  0  0  0  0  0  0  0  0  0  0
  -16.5111  -39.4568   -7.4026 C   0  0  2  0  0  0  0  0  0  0  0  0
  -16.3632  -38.0922   -7.2137 O   0  0  0  0  0  0  0  0  0  0  0  0
  -17.7730  -40.0176   -6.8521 C   0  0  2  0  0  0  0  0  0  0  0  0
  -18.6664  -39.0878   -6.1211 C   0  0  0  0  0  0  0  0  0  0  0  0
  -19.2429  -37.9276   -6.8035 C   0  0  2  0  0  0  0  0  0  0  0  0
  -19.5962  -36.9130   -5.6912 C   0  0  0  0  0  0  0  0  0  0  0  0
  -20.4651  -38.1019   -7.6379 C   0  0  0  0  0  0  0  0  0  0  0  0
  -21.2144  -39.3571   -7.4138 C   0  0  0  0  0  0  0  0  0  0  0  0
  -22.6202  -39.3533   -7.9536 C   0  0  0  0  0  0  0  0  0  0  0  0
  -23.0251  -40.7794   -8.3503 C   0  0  0  0  0  0  0  0  0  0  0  0
  -23.5708  -41.5280   -7.1852 C   0  0  0  0  0  0  0  0  0  0  0  0
  -23.5144  -43.0401   -7.3277 C   0  0  0  0  0  0  0  0  0  0  0  0
  -22.3284  -43.4683   -8.0251 N   0  0  0  0  0  0  0  0  0  0  0  0
  -20.9612  -43.5446   -7.6149 C   0  0  0  0  0  0  0  0  0  0  0  0
  -20.1788  -42.7454   -6.8116 C   0  0  0  0  0  0  0  0  0  0  0  0
  -18.8362  -43.0834   -6.7032 C   0  0  0  0  0  0  0  0  0  0  0  0
  -18.3462  -44.2143   -7.4015 C   0  0  0  0  0  0  0  0  0  0  0  0
  -19.1405  -45.0056   -8.1964 C   0  0  0  0  0  0  0  0  0  0  0  0
  -20.3924  -44.6425   -8.2684 N   0  0  0  0  0  0  0  0  0  0  0  0
  -18.6110  -46.1124   -8.8648 O   0  0  0  0  0  0  0  0  0  0  0  0
  -19.4110  -47.0465   -9.5286 C   0  0  0  0  0  0  0  0  0  0  0  0
  -17.7172  -42.4213   -6.0115 C   0  0  0  0  0  0  0  0  0  0  0  0
  -16.8706  -43.2071   -5.4150 O   0  0  0  0  0  0  0  0  0  0  0  0
  -17.3886  -41.0570   -5.8786 N   0  0  0  0  0  0  0  0  0  0  0  0
  1  2  1  0
  2  3  1  0
  3  4  1  0
  4  5  1  0
  5  6  1  0
  6  7  2  0
  6  8  1  0
  8  9  1  1
  8 10  1  0
 10 11  1  0
 11 12  1  1
 11 13  1  0
 13 14  1  1
 14 15  1  0
 15 16  1  1
 15 17  1  0
 17 18  1  0
 18 19  1  0
 19 20  1  0
 20 21  1  0
 21 22  1  0
 22 23  1  0
 23 24  1  0
 24 25  2  0
 25 26  1  0
 26 27  2  0
 27 28  1  0
 28 29  2  0
 28 30  1  0
 30 31  1  0
 26 32  1  0
 32 33  2  0
 32 34  1  0
 29 24  1  0
 34 13  1  0
M  END
$$$$
