
     RDKit          3D

 34 35  0  0  0  0  0  0  0  0999 V2000
  -13.2937  -35.2487   -9.9744 C   0  0  0  0  0  0  0  0  0  0  0  0
  -12.6010  -36.3776  -10.6806 C   0  0  0  0  0  0  0  0  0  0  0  0
  -12.6322  -37.6292   -9.7939 C   0  0  0  0  0  0  0  0  0  0  0  0
  -12.6410  -38.8297  -10.7129 C   0  0  0  0  0  0  0  0  0  0  0  0
  -13.9073  -39.0538  -11.3465 N   0  0  0  0  0  0  0  0  0  0  0  0
  -15.0364  -39.5562  -10.6464 C   0  0  0  0  0  0  0  0  0  0  0  0
  -15.6458  -38.7660   -9.8845 O   0  0  0  0  0  0  0  0  0  0  0  0
  -15.4232  -40.9792  -10.8593 C   0  0  2  0  0  0  0  0  0  0  0  0
  -14.6548  -41.4278  -12.0948 C   0  0  0  0  0  0  0  0  0  0  0  0
  -16.9165  -41.0760  -11.2008 C   0  0  0  0  0  0  0  0  0  0  0  0
  -17.6751  -41.5621  -10.0190 C   0  0  2  0  0  0  0  0  0  0  0  0
  -18.3333  -42.7255  -10.3833 O   0  0  0  0  0  0  0  0  0  0  0  0
  -18.5293  -40.5708   -9.3136 C   0  0  2  0  0  0  0  0  0  0  0  0
  -19.1092  -39.4751  -10.1259 C   0  0  0  0  0  0  0  0  0  0  0  0
  -20.0223  -39.7776  -11.2301 C   0  0  2  0  0  0  0  0  0  0  0  0
  -19.9614  -38.5572  -12.1778 C   0  0  0  0  0  0  0  0  0  0  0  0
  -21.4615  -40.0328  -10.9406 C   0  0  0  0  0  0  0  0  0  0  0  0
  -21.9291  -39.5963   -9.6072 C   0  0  0  0  0  0  0  0  0  0  0  0
  -23.4253  -39.4963   -9.4689 C   0  0  0  0  0  0  0  0  0  0  0  0
  -23.8297  -39.7773   -8.0155 C   0  0  0  0  0  0  0  0  0  0  0  0
  -23.7613  -38.5413   -7.1890 C   0  0  0  0  0  0  0  0  0  0  0  0
  -23.6345  -38.7907   -5.6951 C   0  0  0  0  0  0  0  0  0  0  0  0
  -22.8218  -39.9464   -5.4122 N   0  0  0  0  0  0  0  0  0  0  0  0
  -21.4086  -40.1523   -5.4768 C   0  0  0  0  0  0  0  0  0  0  0  0
  -20.4353  -39.7012   -6.3402 C   0  0  0  0  0  0  0  0  0  0  0  0
  -19.1486  -40.1868   -6.1480 C   0  0  0  0  0  0  0  0  0  0  0  0
  -18.9005  -41.0969   -5.0912 C   0  0  0  0  0  0  0  0  0  0  0  0
  -19.8817  -41.5349   -4.2343 C   0  0  0  0  0  0  0  0  0  0  0  0
  -21.0735  -41.0527   -4.4605 N   0  0  0  0  0  0  0  0  0  0  0  0
  -19.5874  -42.4330   -3.2051 O   0  0  0  0  0  0  0  0  0  0  0  0
  -20.4269  -42.6192   -2.1035 C   0  0  0  0  0  0  0  0  0  0  0  0
  -17.9067  -39.9866   -6.9138 C   0  0  0  0  0  0  0  0  0  0  0  0
  -16.8202  -39.8510   -6.2129 O   0  0  0  0  0  0  0  0  0  0  0  0
  -17.6771  -39.9165   -8.3029 N   0  0  0  0  0  0  0  0  0  0  0  0
  1  2  1  0
  2  3  1  0
  3  4  1  0
  4  5  1  0
  5  6  1  0
  6  7  2  0
  6  8  1  0
  8  9  1  6
  8 10  1  0
 10 11  1  0
 11 12  1  6
 11 13  1  0
 13 14  1  6
 14 15  1  0
 15 16  1  6
 15 17  1  0
 17 18  1  0
 18 19  1  0
 19 20  1  0
 20 21  1  0
 21 22  1  0
 22 23  1  0
 23 24  1  0
 24 25  2  0
 25 26  1  0
 26 27  2  0
 27 28  1  0
 28 29  2  0
 28 30  1  0
 30 31  1  0
 26 32  1  0
 32 33  2  0
 32 34  1  0
 29 24  1  0
 34 13  1  0
M  END
$$$$
