
     RDKit          3D

 34 35  0  0  0  0  0  0  0  0999 V2000
  -17.0800  -40.0998  -15.1483 C   0  0  0  0  0  0  0  0  0  0  0  0
  -16.2419  -39.0555  -14.4701 C   0  0  0  0  0  0  0  0  0  0  0  0
  -16.1779  -39.3509  -12.9660 C   0  0  0  0  0  0  0  0  0  0  0  0
  -14.8313  -38.8729  -12.4720 C   0  0  0  0  0  0  0  0  0  0  0  0
  -14.1593  -39.8249  -11.6369 N   0  0  0  0  0  0  0  0  0  0  0  0
  -14.4868  -40.0088  -10.2671 C   0  0  0  0  0  0  0  0  0  0  0  0
  -15.0035  -41.1041   -9.9357 O   0  0  0  0  0  0  0  0  0  0  0  0
  -14.1985  -38.8978   -9.3170 C   0  0  2  0  0  0  0  0  0  0  0  0
  -12.6853  -38.8904   -9.1490 C   0  0  0  0  0  0  0  0  0  0  0  0
  -14.8007  -39.2097   -7.9401 C   0  0  0  0  0  0  0  0  0  0  0  0
  -16.1880  -38.6826   -7.8637 C   0  0  2  0  0  0  0  0  0  0  0  0
  -16.1514  -37.4834   -7.1707 O   0  0  0  0  0  0  0  0  0  0  0  0
  -17.2411  -39.6246   -7.4016 C   0  0  2  0  0  0  0  0  0  0  0  0
  -18.0554  -39.2120   -6.2339 C   0  0  0  0  0  0  0  0  0  0  0  0
  -18.8804  -38.0039   -6.2983 C   0  0  2  0  0  0  0  0  0  0  0  0
  -19.0989  -37.5603   -4.8332 C   0  0  0  0  0  0  0  0  0  0  0  0
  -20.2244  -38.0687   -6.9386 C   0  0  0  0  0  0  0  0  0  0  0  0
  -20.7740  -39.4288   -7.1271 C   0  0  0  0  0  0  0  0  0  0  0  0
  -22.2538  -39.4746   -7.4021 C   0  0  0  0  0  0  0  0  0  0  0  0
  -22.5801  -40.6961   -8.2719 C   0  0  0  0  0  0  0  0  0  0  0  0
  -22.7889  -41.9109   -7.4375 C   0  0  0  0  0  0  0  0  0  0  0  0
  -22.6045  -43.2234   -8.1815 C   0  0  0  0  0  0  0  0  0  0  0  0
  -21.5516  -43.1400   -9.1616 N   0  0  0  0  0  0  0  0  0  0  0  0
  -20.1286  -43.1185   -9.0270 C   0  0  0  0  0  0  0  0  0  0  0  0
  -19.2846  -42.5520   -8.0980 C   0  0  0  0  0  0  0  0  0  0  0  0
  -17.9209  -42.6600   -8.3374 C   0  0  0  0  0  0  0  0  0  0  0  0
  -17.4710  -43.3401   -9.4958 C   0  0  0  0  0  0  0  0  0  0  0  0
  -18.3257  -43.9046  -10.4122 C   0  0  0  0  0  0  0  0  0  0  0  0
  -19.5962  -43.7711  -10.1434 N   0  0  0  0  0  0  0  0  0  0  0  0
  -17.8335  -44.5668  -11.5398 O   0  0  0  0  0  0  0  0  0  0  0  0
  -18.6479  -45.3275  -12.3831 C   0  0  0  0  0  0  0  0  0  0  0  0
  -16.7584  -42.1164   -7.6150 C   0  0  0  0  0  0  0  0  0  0  0  0
  -15.7281  -42.9033   -7.5184 O   0  0  0  0  0  0  0  0  0  0  0  0
  -16.5549  -40.8660   -6.9968 N   0  0  0  0  0  0  0  0  0  0  0  0
  1  2  1  0
  2  3  1  0
  3  4  1  0
  4  5  1  0
  5  6  1  0
  6  7  2  0
  6  8  1  0
  8  9  1  1
  8 10  1  0
 10 11  1  0
 11 12  1  1
 11 13  1  0
 13 14  1  1
 14 15  1  0
 15 16  1  1
 15 17  1  0
 17 18  1  0
 18 19  1  0
 19 20  1  0
 20 21  1  0
 21 22  1  0
 22 23  1  0
 23 24  1  0
 24 25  2  0
 25 26  1  0
 26 27  2  0
 27 28  1  0
 28 29  2  0
 28 30  1  0
 30 31  1  0
 26 32  1  0
 32 33  2  0
 32 34  1  0
 29 24  1  0
 34 13  1  0
M  END
$$$$
