
     RDKit          3D

 34 35  0  0  0  0  0  0  0  0999 V2000
  -12.5222  -45.2735   -9.5690 C   0  0  0  0  0  0  0  0  0  0  0  0
  -13.3460  -44.0981   -9.1300 C   0  0  0  0  0  0  0  0  0  0  0  0
  -14.6234  -44.0262   -9.9765 C   0  0  0  0  0  0  0  0  0  0  0  0
  -14.4491  -42.8875  -10.9557 C   0  0  0  0  0  0  0  0  0  0  0  0
  -15.4690  -41.8853  -10.8526 N   0  0  0  0  0  0  0  0  0  0  0  0
  -15.2814  -40.6713  -10.1396 C   0  0  0  0  0  0  0  0  0  0  0  0
  -14.2427  -40.5620   -9.4427 O   0  0  0  0  0  0  0  0  0  0  0  0
  -16.3220  -39.6120  -10.2630 C   0  0  2  0  0  0  0  0  0  0  0  0
  -16.2038  -39.0918  -11.6890 C   0  0  0  0  0  0  0  0  0  0  0  0
  -15.9952  -38.4384   -9.3294 C   0  0  0  0  0  0  0  0  0  0  0  0
  -17.1550  -38.1590   -8.4433 C   0  0  2  0  0  0  0  0  0  0  0  0
  -16.8001  -37.1286   -7.5878 O   0  0  0  0  0  0  0  0  0  0  0  0
  -17.7829  -39.3256   -7.7689 C   0  0  2  0  0  0  0  0  0  0  0  0
  -18.4800  -39.0728   -6.4856 C   0  0  0  0  0  0  0  0  0  0  0  0
  -19.6306  -38.1684   -6.4355 C   0  0  2  0  0  0  0  0  0  0  0  0
  -19.7288  -37.6872   -4.9691 C   0  0  0  0  0  0  0  0  0  0  0  0
  -20.9781  -38.6764   -6.8181 C   0  0  0  0  0  0  0  0  0  0  0  0
  -21.1139  -40.1484   -6.8621 C   0  0  0  0  0  0  0  0  0  0  0  0
  -22.5346  -40.6476   -6.8617 C   0  0  0  0  0  0  0  0  0  0  0  0
  -22.6146  -41.9792   -7.6200 C   0  0  0  0  0  0  0  0  0  0  0  0
  -22.3061  -43.1279   -6.7251 C   0  0  0  0  0  0  0  0  0  0  0  0
  -21.8584  -44.3866   -7.4500 C   0  0  0  0  0  0  0  0  0  0  0  0
  -21.0564  -44.0813   -8.6075 N   0  0  0  0  0  0  0  0  0  0  0  0
  -19.7047  -43.6337   -8.7348 C   0  0  0  0  0  0  0  0  0  0  0  0
  -18.9307  -42.7698   -7.9926 C   0  0  0  0  0  0  0  0  0  0  0  0
  -17.6572  -42.4942   -8.4728 C   0  0  0  0  0  0  0  0  0  0  0  0
  -17.2196  -43.1074   -9.6725 C   0  0  0  0  0  0  0  0  0  0  0  0
  -18.0021  -43.9715  -10.4004 C   0  0  0  0  0  0  0  0  0  0  0  0
  -19.1911  -44.1931   -9.9092 N   0  0  0  0  0  0  0  0  0  0  0  0
  -17.5253  -44.5528  -11.5781 O   0  0  0  0  0  0  0  0  0  0  0  0
  -17.8629  -45.8515  -11.9687 C   0  0  0  0  0  0  0  0  0  0  0  0
  -16.6113  -41.5763   -7.9908 C   0  0  0  0  0  0  0  0  0  0  0  0
  -15.3901  -42.0168   -8.0595 O   0  0  0  0  0  0  0  0  0  0  0  0
  -16.6966  -40.2739   -7.4583 N   0  0  0  0  0  0  0  0  0  0  0  0
  1  2  1  0
  2  3  1  0
  3  4  1  0
  4  5  1  0
  5  6  1  0
  6  7  2  0
  6  8  1  0
  8  9  1  6
  8 10  1  0
 10 11  1  0
 11 12  1  1
 11 13  1  0
 13 14  1  1
 14 15  1  0
 15 16  1  1
 15 17  1  0
 17 18  1  0
 18 19  1  0
 19 20  1  0
 20 21  1  0
 21 22  1  0
 22 23  1  0
 23 24  1  0
 24 25  2  0
 25 26  1  0
 26 27  2  0
 27 28  1  0
 28 29  2  0
 28 30  1  0
 30 31  1  0
 26 32  1  0
 32 33  2  0
 32 34  1  0
 29 24  1  0
 34 13  1  0
M  END
$$$$
