
     RDKit          3D

 34 35  0  0  0  0  0  0  0  0999 V2000
  -21.0997  -48.0745   -6.4603 C   0  0  0  0  0  0  0  0  0  0  0  0
  -20.6519  -47.1095   -7.5193 C   0  0  0  0  0  0  0  0  0  0  0  0
  -19.7473  -46.0434   -6.8878 C   0  0  0  0  0  0  0  0  0  0  0  0
  -20.6467  -44.9543   -6.3485 C   0  0  0  0  0  0  0  0  0  0  0  0
  -20.0843  -43.6406   -6.4643 N   0  0  0  0  0  0  0  0  0  0  0  0
  -20.8699  -42.4603   -6.3791 C   0  0  0  0  0  0  0  0  0  0  0  0
  -22.0563  -42.5220   -6.7854 O   0  0  0  0  0  0  0  0  0  0  0  0
  -20.2404  -41.2325   -5.8167 C   0  0  2  0  0  0  0  0  0  0  0  0
  -20.6097  -41.2276   -4.3397 C   0  0  0  0  0  0  0  0  0  0  0  0
  -20.8726  -39.9808   -6.4408 C   0  0  0  0  0  0  0  0  0  0  0  0
  -19.8085  -39.0764   -6.9486 C   0  0  2  0  0  0  0  0  0  0  0  0
  -20.2224  -37.7708   -6.7398 O   0  0  0  0  0  0  0  0  0  0  0  0
  -19.2947  -39.3440   -8.3177 C   0  0  2  0  0  0  0  0  0  0  0  0
  -19.8324  -38.5105   -9.4190 C   0  0  0  0  0  0  0  0  0  0  0  0
  -19.6362  -37.0594   -9.4108 C   0  0  2  0  0  0  0  0  0  0  0  0
  -20.7559  -36.4745  -10.3026 C   0  0  0  0  0  0  0  0  0  0  0  0
  -18.3484  -36.4922   -9.9008 C   0  0  0  0  0  0  0  0  0  0  0  0
  -17.5123  -37.4121  -10.7020 C   0  0  0  0  0  0  0  0  0  0  0  0
  -16.4313  -36.7383  -11.5052 C   0  0  0  0  0  0  0  0  0  0  0  0
  -15.2398  -37.6912  -11.6696 C   0  0  0  0  0  0  0  0  0  0  0  0
  -15.4261  -38.5891  -12.8421 C   0  0  0  0  0  0  0  0  0  0  0  0
  -14.6020  -39.8652  -12.7935 C   0  0  0  0  0  0  0  0  0  0  0  0
  -14.4826  -40.3746  -11.4509 N   0  0  0  0  0  0  0  0  0  0  0  0
  -15.4162  -41.0503  -10.6052 C   0  0  0  0  0  0  0  0  0  0  0  0
  -16.7736  -40.9174  -10.4150 C   0  0  0  0  0  0  0  0  0  0  0  0
  -17.3502  -41.6997   -9.4230 C   0  0  0  0  0  0  0  0  0  0  0  0
  -16.5353  -42.5846   -8.6750 C   0  0  0  0  0  0  0  0  0  0  0  0
  -15.1820  -42.7098   -8.8793 C   0  0  0  0  0  0  0  0  0  0  0  0
  -14.6888  -41.9496   -9.8190 N   0  0  0  0  0  0  0  0  0  0  0  0
  -14.4200  -43.5982   -8.1162 O   0  0  0  0  0  0  0  0  0  0  0  0
  -13.0373  -43.7305   -8.2698 C   0  0  0  0  0  0  0  0  0  0  0  0
  -18.7273  -41.7569   -8.9042 C   0  0  0  0  0  0  0  0  0  0  0  0
  -19.1826  -42.9421   -8.6247 O   0  0  0  0  0  0  0  0  0  0  0  0
  -19.6626  -40.7340   -8.6468 N   0  0  0  0  0  0  0  0  0  0  0  0
  1  2  1  0
  2  3  1  0
  3  4  1  0
  4  5  1  0
  5  6  1  0
  6  7  2  0
  6  8  1  0
  8  9  1  1
  8 10  1  0
 10 11  1  0
 11 12  1  6
 11 13  1  0
 13 14  1  6
 14 15  1  0
 15 16  1  6
 15 17  1  0
 17 18  1  0
 18 19  1  0
 19 20  1  0
 20 21  1  0
 21 22  1  0
 22 23  1  0
 23 24  1  0
 24 25  2  0
 25 26  1  0
 26 27  2  0
 27 28  1  0
 28 29  2  0
 28 30  1  0
 30 31  1  0
 26 32  1  0
 32 33  2  0
 32 34  1  0
 29 24  1  0
 34 13  1  0
M  END
$$$$
