
     RDKit          3D

 36 38  0  0  0  0  0  0  0  0999 V2000
  -12.8438  -34.8393  -13.1379 C   0  0  0  0  0  0  0  0  0  0  0  0
  -12.1357  -36.0213  -12.5055 C   0  0  0  0  0  0  0  0  0  0  0  0
  -11.3918  -36.7311  -13.6434 C   0  0  0  0  0  0  0  0  0  0  0  0
  -13.1108  -36.9520  -11.8718 C   0  0  0  0  0  0  0  0  0  0  0  0
  -14.4513  -36.7063  -12.0625 C   0  0  0  0  0  0  0  0  0  0  0  0
  -15.3995  -37.5186  -11.5193 C   0  0  0  0  0  0  0  0  0  0  0  0
  -14.9806  -38.6143  -10.7587 C   0  0  0  0  0  0  0  0  0  0  0  0
  -13.6596  -38.8956  -10.5436 C   0  0  0  0  0  0  0  0  0  0  0  0
  -13.2692  -40.0693   -9.7420 C   0  0  0  0  0  0  0  0  0  0  0  0
  -13.9681  -40.2468   -8.5185 N   0  0  0  0  0  0  0  0  0  0  0  0
  -15.3820  -40.2521   -8.5567 C   0  0  0  0  0  0  0  0  0  0  0  0
  -16.0992  -39.7750   -7.3467 C   0  0  1  0  0  0  0  0  0  0  0  0
  -15.7910  -38.4852   -6.9347 O   0  0  0  0  0  0  0  0  0  0  0  0
  -17.6209  -39.8673   -7.4257 C   0  0  2  0  0  0  0  0  0  0  0  0
  -18.1832  -38.5246   -7.0942 C   0  0  0  0  0  0  0  0  0  0  0  0
  -19.6930  -38.4714   -7.0191 C   0  0  2  0  0  0  0  0  0  0  0  0
  -20.2763  -39.2259   -5.8794 C   0  0  0  0  0  0  0  0  0  0  0  0
  -20.2949  -38.7479   -8.3667 C   0  0  0  0  0  0  0  0  0  0  0  0
  -21.7730  -38.5709   -8.4059 C   0  0  0  0  0  0  0  0  0  0  0  0
  -22.4068  -39.6378   -9.2897 C   0  0  0  0  0  0  0  0  0  0  0  0
  -23.4929  -40.3852   -8.5585 C   0  0  0  0  0  0  0  0  0  0  0  0
  -24.4094  -41.0236   -9.5544 C   0  0  0  0  0  0  0  0  0  0  0  0
  -23.6932  -41.9789  -10.4755 C   0  0  0  0  0  0  0  0  0  0  0  0
  -23.2096  -43.2350   -9.7883 C   0  0  0  0  0  0  0  0  0  0  0  0
  -21.8216  -43.3823  -10.0716 N   0  0  0  0  0  0  0  0  0  0  0  0
  -20.6581  -43.3919   -9.2292 C   0  0  0  0  0  0  0  0  0  0  0  0
  -20.2121  -42.5480   -8.2405 C   0  0  0  0  0  0  0  0  0  0  0  0
  -19.0087  -42.8568   -7.6456 C   0  0  0  0  0  0  0  0  0  0  0  0
  -18.3105  -44.0163   -8.0805 C   0  0  0  0  0  0  0  0  0  0  0  0
  -18.7609  -44.8549   -9.0658 C   0  0  0  0  0  0  0  0  0  0  0  0
  -17.9802  -46.0589   -9.4801 C   0  0  0  0  0  0  0  0  0  0  0  0
  -19.9150  -44.5077   -9.5990 N   0  0  0  0  0  0  0  0  0  0  0  0
  -18.2309  -42.1952   -6.5965 C   0  0  0  0  0  0  0  0  0  0  0  0
  -17.6344  -42.9331   -5.6761 O   0  0  0  0  0  0  0  0  0  0  0  0
  -17.9635  -40.8214   -6.3478 N   0  0  0  0  0  0  0  0  0  0  0  0
  -12.7262  -38.0433  -11.1144 C   0  0  0  0  0  0  0  0  0  0  0  0
  1  2  1  0
  2  3  1  0
  2  4  1  0
  4  5  2  0
  5  6  1  0
  6  7  2  0
  7  8  1  0
  8  9  1  0
  9 10  1  0
 10 11  1  0
 11 12  1  0
 12 13  1  6
 12 14  1  0
 14 15  1  1
 15 16  1  0
 16 17  1  1
 16 18  1  0
 18 19  1  0
 19 20  1  0
 20 21  1  0
 21 22  1  0
 22 23  1  0
 23 24  1  0
 24 25  1  0
 25 26  1  0
 26 27  2  0
 27 28  1  0
 28 29  2  0
 29 30  1  0
 30 31  1  0
 30 32  2  0
 28 33  1  0
 33 34  2  0
 33 35  1  0
  8 36  2  0
 32 26  1  0
 35 14  1  0
 36  4  1  0
M  END
$$$$
