
     RDKit          3D

 36 38  0  0  0  0  0  0  0  0999 V2000
  -15.5751  -33.0777  -11.2566 C   0  0  0  0  0  0  0  0  0  0  0  0
  -16.7910  -33.9833  -11.2659 C   0  0  0  0  0  0  0  0  0  0  0  0
  -17.6267  -33.5874  -10.0424 C   0  0  0  0  0  0  0  0  0  0  0  0
  -16.3917  -35.4152  -11.1721 C   0  0  0  0  0  0  0  0  0  0  0  0
  -16.7491  -36.2514  -12.2050 C   0  0  0  0  0  0  0  0  0  0  0  0
  -16.4124  -37.5706  -12.1906 C   0  0  0  0  0  0  0  0  0  0  0  0
  -15.6917  -38.0615  -11.0978 C   0  0  0  0  0  0  0  0  0  0  0  0
  -15.3162  -37.2666  -10.0502 C   0  0  0  0  0  0  0  0  0  0  0  0
  -14.5483  -37.8305   -8.9257 C   0  0  0  0  0  0  0  0  0  0  0  0
  -14.4817  -39.2480   -8.8671 N   0  0  0  0  0  0  0  0  0  0  0  0
  -15.5321  -39.9352   -8.2153 C   0  0  0  0  0  0  0  0  0  0  0  0
  -16.7153  -40.3064   -9.0327 C   0  0  1  0  0  0  0  0  0  0  0  0
  -16.6311  -41.5250   -9.6933 O   0  0  0  0  0  0  0  0  0  0  0  0
  -18.0430  -40.2973   -8.2794 C   0  0  2  0  0  0  0  0  0  0  0  0
  -18.4541  -38.8753   -8.0845 C   0  0  0  0  0  0  0  0  0  0  0  0
  -19.7028  -38.6858   -7.2523 C   0  0  2  0  0  0  0  0  0  0  0  0
  -19.5463  -39.0528   -5.8208 C   0  0  0  0  0  0  0  0  0  0  0  0
  -20.8943  -39.2712   -7.9541 C   0  0  0  0  0  0  0  0  0  0  0  0
  -22.1853  -38.9965   -7.2646 C   0  0  0  0  0  0  0  0  0  0  0  0
  -23.1004  -40.2109   -7.3590 C   0  0  0  0  0  0  0  0  0  0  0  0
  -23.5846  -40.6432   -5.9983 C   0  0  0  0  0  0  0  0  0  0  0  0
  -24.8319  -41.4552   -6.1531 C   0  0  0  0  0  0  0  0  0  0  0  0
  -24.6274  -42.6784   -7.0108 C   0  0  0  0  0  0  0  0  0  0  0  0
  -23.7597  -43.7334   -6.3641 C   0  0  0  0  0  0  0  0  0  0  0  0
  -22.7155  -44.0606   -7.2757 N   0  0  0  0  0  0  0  0  0  0  0  0
  -21.2870  -43.9311   -7.1971 C   0  0  0  0  0  0  0  0  0  0  0  0
  -20.4595  -42.8872   -6.8592 C   0  0  0  0  0  0  0  0  0  0  0  0
  -19.1025  -43.1153   -6.9201 C   0  0  0  0  0  0  0  0  0  0  0  0
  -18.6441  -44.4005   -7.3194 C   0  0  0  0  0  0  0  0  0  0  0  0
  -19.4739  -45.4380   -7.6536 C   0  0  0  0  0  0  0  0  0  0  0  0
  -18.9311  -46.7666   -8.0670 C   0  0  0  0  0  0  0  0  0  0  0  0
  -20.7600  -45.1601   -7.5790 N   0  0  0  0  0  0  0  0  0  0  0  0
  -17.9471  -42.2557   -6.6564 C   0  0  0  0  0  0  0  0  0  0  0  0
  -16.9028  -42.7591   -6.0210 O   0  0  0  0  0  0  0  0  0  0  0  0
  -17.6983  -40.8915   -6.9688 N   0  0  0  0  0  0  0  0  0  0  0  0
  -15.6792  -35.9292  -10.1040 C   0  0  0  0  0  0  0  0  0  0  0  0
  1  2  1  0
  2  3  1  0
  2  4  1  0
  4  5  2  0
  5  6  1  0
  6  7  2  0
  7  8  1  0
  8  9  1  0
  9 10  1  0
 10 11  1  0
 11 12  1  0
 12 13  1  1
 12 14  1  0
 14 15  1  1
 15 16  1  0
 16 17  1  1
 16 18  1  0
 18 19  1  0
 19 20  1  0
 20 21  1  0
 21 22  1  0
 22 23  1  0
 23 24  1  0
 24 25  1  0
 25 26  1  0
 26 27  2  0
 27 28  1  0
 28 29  2  0
 29 30  1  0
 30 31  1  0
 30 32  2  0
 28 33  1  0
 33 34  2  0
 33 35  1  0
  8 36  2  0
 32 26  1  0
 35 14  1  0
 36  4  1  0
M  END
$$$$
