
     RDKit          3D

 36 38  0  0  0  0  0  0  0  0999 V2000
  -22.8770  -41.5458   -9.2168 C   0  0  0  0  0  0  0  0  0  0  0  0
  -22.5189  -41.5936   -7.7444 C   0  0  0  0  0  0  0  0  0  0  0  0
  -23.8433  -41.7600   -6.9890 C   0  0  0  0  0  0  0  0  0  0  0  0
  -21.8404  -40.3380   -7.3183 C   0  0  0  0  0  0  0  0  0  0  0  0
  -22.6179  -39.2177   -7.1337 C   0  0  0  0  0  0  0  0  0  0  0  0
  -22.0675  -38.0368   -6.7381 C   0  0  0  0  0  0  0  0  0  0  0  0
  -20.6871  -37.9854   -6.5223 C   0  0  0  0  0  0  0  0  0  0  0  0
  -19.8770  -39.0738   -6.6940 C   0  0  0  0  0  0  0  0  0  0  0  0
  -18.4281  -38.9704   -6.4438 C   0  0  0  0  0  0  0  0  0  0  0  0
  -17.6162  -39.9472   -7.0792 N   0  0  0  0  0  0  0  0  0  0  0  0
  -16.2159  -39.7482   -7.0789 C   0  0  0  0  0  0  0  0  0  0  0  0
  -15.7212  -38.3780   -7.3682 C   0  0  1  0  0  0  0  0  0  0  0  0
  -14.6976  -37.9227   -6.5477 O   0  0  0  0  0  0  0  0  0  0  0  0
  -15.2736  -38.1493   -8.8096 C   0  0  2  0  0  0  0  0  0  0  0  0
  -15.4526  -36.7011   -9.1250 C   0  0  0  0  0  0  0  0  0  0  0  0
  -15.1568  -36.3243  -10.5597 C   0  0  2  0  0  0  0  0  0  0  0  0
  -16.1226  -36.8710  -11.5480 C   0  0  0  0  0  0  0  0  0  0  0  0
  -13.7041  -36.5435  -10.8704 C   0  0  0  0  0  0  0  0  0  0  0  0
  -13.3047  -36.0592  -12.2208 C   0  0  0  0  0  0  0  0  0  0  0  0
  -12.2971  -37.0161  -12.8455 C   0  0  0  0  0  0  0  0  0  0  0  0
  -12.7440  -37.4725  -14.2110 C   0  0  0  0  0  0  0  0  0  0  0  0
  -11.5571  -37.9579  -14.9824 C   0  0  0  0  0  0  0  0  0  0  0  0
  -10.8424  -39.0947  -14.2964 C   0  0  0  0  0  0  0  0  0  0  0  0
  -11.6318  -40.3833  -14.2780 C   0  0  0  0  0  0  0  0  0  0  0  0
  -11.6963  -40.8380  -12.9299 N   0  0  0  0  0  0  0  0  0  0  0  0
  -12.7973  -41.0461  -12.0309 C   0  0  0  0  0  0  0  0  0  0  0  0
  -13.8616  -40.2609  -11.6578 C   0  0  0  0  0  0  0  0  0  0  0  0
  -14.7334  -40.7835  -10.7282 C   0  0  0  0  0  0  0  0  0  0  0  0
  -14.4866  -42.0879  -10.2194 C   0  0  0  0  0  0  0  0  0  0  0  0
  -13.4245  -42.8668  -10.5963 C   0  0  0  0  0  0  0  0  0  0  0  0
  -13.2180  -44.2309  -10.0241 C   0  0  0  0  0  0  0  0  0  0  0  0
  -12.6244  -42.3136  -11.4854 N   0  0  0  0  0  0  0  0  0  0  0  0
  -15.9380  -40.2431  -10.0956 C   0  0  0  0  0  0  0  0  0  0  0  0
  -16.9791  -41.0368   -9.9118 O   0  0  0  0  0  0  0  0  0  0  0  0
  -16.2391  -38.9455   -9.5994 N   0  0  0  0  0  0  0  0  0  0  0  0
  -20.4775  -40.2569   -7.0976 C   0  0  0  0  0  0  0  0  0  0  0  0
  1  2  1  0
  2  3  1  0
  2  4  1  0
  4  5  2  0
  5  6  1  0
  6  7  2  0
  7  8  1  0
  8  9  1  0
  9 10  1  0
 10 11  1  0
 11 12  1  0
 12 13  1  1
 12 14  1  0
 14 15  1  6
 15 16  1  0
 16 17  1  6
 16 18  1  0
 18 19  1  0
 19 20  1  0
 20 21  1  0
 21 22  1  0
 22 23  1  0
 23 24  1  0
 24 25  1  0
 25 26  1  0
 26 27  2  0
 27 28  1  0
 28 29  2  0
 29 30  1  0
 30 31  1  0
 30 32  2  0
 28 33  1  0
 33 34  2  0
 33 35  1  0
  8 36  2  0
 32 26  1  0
 35 14  1  0
 36  4  1  0
M  END
$$$$
