
     RDKit          3D

 36 38  0  0  0  0  0  0  0  0999 V2000
  -23.1815  -37.7576   -5.0152 C   0  0  0  0  0  0  0  0  0  0  0  0
  -21.9415  -38.5888   -5.2801 C   0  0  0  0  0  0  0  0  0  0  0  0
  -20.8791  -38.0968   -4.2894 C   0  0  0  0  0  0  0  0  0  0  0  0
  -21.4628  -38.4040   -6.6783 C   0  0  0  0  0  0  0  0  0  0  0  0
  -22.3657  -38.5998   -7.6983 C   0  0  0  0  0  0  0  0  0  0  0  0
  -22.0009  -38.4421   -9.0005 C   0  0  0  0  0  0  0  0  0  0  0  0
  -20.6816  -38.0750   -9.2821 C   0  0  0  0  0  0  0  0  0  0  0  0
  -19.7518  -37.8705   -8.3003 C   0  0  0  0  0  0  0  0  0  0  0  0
  -18.3756  -37.4747   -8.6490 C   0  0  0  0  0  0  0  0  0  0  0  0
  -17.4292  -37.5178   -7.5909 N   0  0  0  0  0  0  0  0  0  0  0  0
  -17.0054  -38.7865   -7.1310 C   0  0  0  0  0  0  0  0  0  0  0  0
  -15.5566  -39.0985   -7.2280 C   0  0  1  0  0  0  0  0  0  0  0  0
  -14.9067  -39.3171   -6.0204 O   0  0  0  0  0  0  0  0  0  0  0  0
  -15.2139  -40.2744   -8.1390 C   0  0  2  0  0  0  0  0  0  0  0  0
  -13.7962  -40.1191   -8.5807 C   0  0  0  0  0  0  0  0  0  0  0  0
  -13.3291  -41.1500   -9.5841 C   0  0  2  0  0  0  0  0  0  0  0  0
  -13.9734  -41.0411  -10.9188 C   0  0  0  0  0  0  0  0  0  0  0  0
  -13.3250  -42.5186   -8.9663 C   0  0  0  0  0  0  0  0  0  0  0  0
  -12.7397  -43.5672   -9.8470 C   0  0  0  0  0  0  0  0  0  0  0  0
  -13.5179  -44.8690   -9.7028 C   0  0  0  0  0  0  0  0  0  0  0  0
  -13.9845  -45.3832  -11.0410 C   0  0  0  0  0  0  0  0  0  0  0  0
  -14.2653  -46.8492  -10.9360 C   0  0  0  0  0  0  0  0  0  0  0  0
  -15.3111  -47.1686   -9.8977 C   0  0  0  0  0  0  0  0  0  0  0  0
  -16.7000  -46.7075  -10.2751 C   0  0  0  0  0  0  0  0  0  0  0  0
  -17.2076  -45.9224   -9.2007 N   0  0  0  0  0  0  0  0  0  0  0  0
  -17.6047  -44.5446   -9.1129 C   0  0  0  0  0  0  0  0  0  0  0  0
  -16.9953  -43.3700   -9.4836 C   0  0  0  0  0  0  0  0  0  0  0  0
  -17.6715  -42.1997   -9.2182 C   0  0  0  0  0  0  0  0  0  0  0  0
  -18.9441  -42.2748   -8.5889 C   0  0  0  0  0  0  0  0  0  0  0  0
  -19.5474  -43.4491   -8.2230 C   0  0  0  0  0  0  0  0  0  0  0  0
  -20.8872  -43.4630   -7.5630 C   0  0  0  0  0  0  0  0  0  0  0  0
  -18.8528  -44.5343   -8.4997 N   0  0  0  0  0  0  0  0  0  0  0  0
  -17.3338  -40.7939   -9.4486 C   0  0  0  0  0  0  0  0  0  0  0  0
  -18.2756  -39.9669   -9.8688 O   0  0  0  0  0  0  0  0  0  0  0  0
  -16.1120  -40.0829   -9.2994 N   0  0  0  0  0  0  0  0  0  0  0  0
  -20.1644  -38.0417   -6.9874 C   0  0  0  0  0  0  0  0  0  0  0  0
  1  2  1  0
  2  3  1  0
  2  4  1  0
  4  5  2  0
  5  6  1  0
  6  7  2  0
  7  8  1  0
  8  9  1  0
  9 10  1  0
 10 11  1  0
 11 12  1  0
 12 13  1  1
 12 14  1  0
 14 15  1  6
 15 16  1  0
 16 17  1  6
 16 18  1  0
 18 19  1  0
 19 20  1  0
 20 21  1  0
 21 22  1  0
 22 23  1  0
 23 24  1  0
 24 25  1  0
 25 26  1  0
 26 27  2  0
 27 28  1  0
 28 29  2  0
 29 30  1  0
 30 31  1  0
 30 32  2  0
 28 33  1  0
 33 34  2  0
 33 35  1  0
  8 36  2  0
 32 26  1  0
 35 14  1  0
 36  4  1  0
M  END
$$$$
