
     RDKit          3D

 36 38  0  0  0  0  0  0  0  0999 V2000
  -15.5410  -34.0597  -13.0623 C   0  0  0  0  0  0  0  0  0  0  0  0
  -16.4703  -33.5699  -11.9691 C   0  0  0  0  0  0  0  0  0  0  0  0
  -15.5674  -33.0808  -10.8298 C   0  0  0  0  0  0  0  0  0  0  0  0
  -17.3541  -34.6676  -11.4871 C   0  0  0  0  0  0  0  0  0  0  0  0
  -18.3460  -35.1120  -12.3312 C   0  0  0  0  0  0  0  0  0  0  0  0
  -19.1870  -36.1166  -11.9607 C   0  0  0  0  0  0  0  0  0  0  0  0
  -19.0213  -36.6910  -10.6969 C   0  0  0  0  0  0  0  0  0  0  0  0
  -18.0496  -36.2805   -9.8265 C   0  0  0  0  0  0  0  0  0  0  0  0
  -17.9098  -36.9255   -8.5086 C   0  0  0  0  0  0  0  0  0  0  0  0
  -16.8689  -37.8848   -8.3932 N   0  0  0  0  0  0  0  0  0  0  0  0
  -16.8668  -38.7283   -7.2578 C   0  0  0  0  0  0  0  0  0  0  0  0
  -15.7831  -39.7392   -7.1607 C   0  0  1  0  0  0  0  0  0  0  0  0
  -15.2805  -39.9609   -5.8853 O   0  0  0  0  0  0  0  0  0  0  0  0
  -16.1263  -41.1051   -7.7494 C   0  0  2  0  0  0  0  0  0  0  0  0
  -14.8767  -41.6896   -8.3204 C   0  0  0  0  0  0  0  0  0  0  0  0
  -15.0662  -43.0033   -9.0457 C   0  0  2  0  0  0  0  0  0  0  0  0
  -15.8406  -42.8988  -10.3097 C   0  0  0  0  0  0  0  0  0  0  0  0
  -15.5120  -44.0710   -8.0885 C   0  0  0  0  0  0  0  0  0  0  0  0
  -15.5807  -45.4272   -8.6998 C   0  0  0  0  0  0  0  0  0  0  0  0
  -16.7843  -46.1877   -8.1576 C   0  0  0  0  0  0  0  0  0  0  0  0
  -17.6566  -46.7061   -9.2726 C   0  0  0  0  0  0  0  0  0  0  0  0
  -18.4905  -47.8385   -8.7614 C   0  0  0  0  0  0  0  0  0  0  0  0
  -19.3663  -47.4387   -7.6009 C   0  0  0  0  0  0  0  0  0  0  0  0
  -20.4864  -46.4988   -7.9831 C   0  0  0  0  0  0  0  0  0  0  0  0
  -20.4213  -45.3667   -7.1213 N   0  0  0  0  0  0  0  0  0  0  0  0
  -20.1940  -43.9709   -7.3734 C   0  0  0  0  0  0  0  0  0  0  0  0
  -19.2347  -43.2933   -8.0871 C   0  0  0  0  0  0  0  0  0  0  0  0
  -19.3095  -41.9179   -8.0928 C   0  0  0  0  0  0  0  0  0  0  0  0
  -20.3623  -41.2891   -7.3735 C   0  0  0  0  0  0  0  0  0  0  0  0
  -21.3168  -41.9700   -6.6650 C   0  0  0  0  0  0  0  0  0  0  0  0
  -22.3989  -41.2516   -5.9275 C   0  0  0  0  0  0  0  0  0  0  0  0
  -21.1927  -43.2817   -6.6941 N   0  0  0  0  0  0  0  0  0  0  0  0
  -18.4724  -40.8892   -8.7128 C   0  0  0  0  0  0  0  0  0  0  0  0
  -19.0506  -39.8373   -9.2666 O   0  0  0  0  0  0  0  0  0  0  0  0
  -17.0617  -40.7800   -8.8490 N   0  0  0  0  0  0  0  0  0  0  0  0
  -17.2144  -35.2546  -10.2428 C   0  0  0  0  0  0  0  0  0  0  0  0
  1  2  1  0
  2  3  1  0
  2  4  1  0
  4  5  2  0
  5  6  1  0
  6  7  2  0
  7  8  1  0
  8  9  1  0
  9 10  1  0
 10 11  1  0
 11 12  1  0
 12 13  1  1
 12 14  1  0
 14 15  1  6
 15 16  1  0
 16 17  1  6
 16 18  1  0
 18 19  1  0
 19 20  1  0
 20 21  1  0
 21 22  1  0
 22 23  1  0
 23 24  1  0
 24 25  1  0
 25 26  1  0
 26 27  2  0
 27 28  1  0
 28 29  2  0
 29 30  1  0
 30 31  1  0
 30 32  2  0
 28 33  1  0
 33 34  2  0
 33 35  1  0
  8 36  2  0
 32 26  1  0
 35 14  1  0
 36  4  1  0
M  END
$$$$
