
     RDKit          3D

 36 38  0  0  0  0  0  0  0  0999 V2000
  -22.1720  -40.5578   -4.9825 C   0  0  0  0  0  0  0  0  0  0  0  0
  -22.6604  -39.2014   -5.4517 C   0  0  0  0  0  0  0  0  0  0  0  0
  -24.1850  -39.3159   -5.5726 C   0  0  0  0  0  0  0  0  0  0  0  0
  -22.0671  -38.8467   -6.7710 C   0  0  0  0  0  0  0  0  0  0  0  0
  -22.6967  -39.3084   -7.9043 C   0  0  0  0  0  0  0  0  0  0  0  0
  -22.2152  -39.0180   -9.1443 C   0  0  0  0  0  0  0  0  0  0  0  0
  -21.0604  -38.2362   -9.2433 C   0  0  0  0  0  0  0  0  0  0  0  0
  -20.4028  -37.7569   -8.1441 C   0  0  0  0  0  0  0  0  0  0  0  0
  -19.1942  -36.9282   -8.3022 C   0  0  0  0  0  0  0  0  0  0  0  0
  -18.0554  -37.5857   -8.8388 N   0  0  0  0  0  0  0  0  0  0  0  0
  -17.6097  -38.7671   -8.2014 C   0  0  0  0  0  0  0  0  0  0  0  0
  -16.1588  -38.8756   -7.9028 C   0  0  1  0  0  0  0  0  0  0  0  0
  -15.8204  -38.8721   -6.5560 O   0  0  0  0  0  0  0  0  0  0  0  0
  -15.4626  -40.0778   -8.5353 C   0  0  2  0  0  0  0  0  0  0  0  0
  -14.0667  -39.6753   -8.8796 C   0  0  0  0  0  0  0  0  0  0  0  0
  -13.2693  -40.7257   -9.6203 C   0  0  2  0  0  0  0  0  0  0  0  0
  -13.7503  -41.0000  -10.9994 C   0  0  0  0  0  0  0  0  0  0  0  0
  -13.0509  -41.9291   -8.7492 C   0  0  0  0  0  0  0  0  0  0  0  0
  -12.1506  -42.9479   -9.3567 C   0  0  0  0  0  0  0  0  0  0  0  0
  -12.6455  -44.3504   -9.0264 C   0  0  0  0  0  0  0  0  0  0  0  0
  -12.8211  -45.1805  -10.2725 C   0  0  0  0  0  0  0  0  0  0  0  0
  -12.7941  -46.6314   -9.9072 C   0  0  0  0  0  0  0  0  0  0  0  0
  -13.8690  -47.0023   -8.9169 C   0  0  0  0  0  0  0  0  0  0  0  0
  -15.2660  -46.9484   -9.4909 C   0  0  0  0  0  0  0  0  0  0  0  0
  -16.0592  -46.1306   -8.6362 N   0  0  0  0  0  0  0  0  0  0  0  0
  -16.7485  -44.8889   -8.8522 C   0  0  0  0  0  0  0  0  0  0  0  0
  -16.3618  -43.6862   -9.3931 C   0  0  0  0  0  0  0  0  0  0  0  0
  -17.2994  -42.6774   -9.4182 C   0  0  0  0  0  0  0  0  0  0  0  0
  -18.5952  -42.9374   -8.8941 C   0  0  0  0  0  0  0  0  0  0  0  0
  -18.9754  -44.1391   -8.3574 C   0  0  0  0  0  0  0  0  0  0  0  0
  -20.3532  -44.3507   -7.8209 C   0  0  0  0  0  0  0  0  0  0  0  0
  -18.0366  -45.0640   -8.3585 N   0  0  0  0  0  0  0  0  0  0  0  0
  -17.2428  -41.2925   -9.8896 C   0  0  0  0  0  0  0  0  0  0  0  0
  -18.2792  -40.7917  -10.5398 O   0  0  0  0  0  0  0  0  0  0  0  0
  -16.2289  -40.3022   -9.7812 N   0  0  0  0  0  0  0  0  0  0  0  0
  -20.9262  -38.0758   -6.9001 C   0  0  0  0  0  0  0  0  0  0  0  0
  1  2  1  0
  2  3  1  0
  2  4  1  0
  4  5  2  0
  5  6  1  0
  6  7  2  0
  7  8  1  0
  8  9  1  0
  9 10  1  0
 10 11  1  0
 11 12  1  0
 12 13  1  1
 12 14  1  0
 14 15  1  6
 15 16  1  0
 16 17  1  6
 16 18  1  0
 18 19  1  0
 19 20  1  0
 20 21  1  0
 21 22  1  0
 22 23  1  0
 23 24  1  0
 24 25  1  0
 25 26  1  0
 26 27  2  0
 27 28  1  0
 28 29  2  0
 29 30  1  0
 30 31  1  0
 30 32  2  0
 28 33  1  0
 33 34  2  0
 33 35  1  0
  8 36  2  0
 32 26  1  0
 35 14  1  0
 36  4  1  0
M  END
$$$$
