
     RDKit          3D

 36 38  0  0  0  0  0  0  0  0999 V2000
  -21.3337  -40.9144   -3.3437 C   0  0  0  0  0  0  0  0  0  0  0  0
  -22.6741  -40.9125   -4.0520 C   0  0  0  0  0  0  0  0  0  0  0  0
  -22.8360  -42.3104   -4.6617 C   0  0  0  0  0  0  0  0  0  0  0  0
  -22.7109  -39.8788   -5.1237 C   0  0  0  0  0  0  0  0  0  0  0  0
  -23.5958  -38.8347   -4.9799 C   0  0  0  0  0  0  0  0  0  0  0  0
  -23.6798  -37.8497   -5.9162 C   0  0  0  0  0  0  0  0  0  0  0  0
  -22.8433  -37.9214   -7.0341 C   0  0  0  0  0  0  0  0  0  0  0  0
  -21.9499  -38.9406   -7.2174 C   0  0  0  0  0  0  0  0  0  0  0  0
  -21.0828  -38.9652   -8.4090 C   0  0  0  0  0  0  0  0  0  0  0  0
  -19.8377  -38.2931   -8.2858 N   0  0  0  0  0  0  0  0  0  0  0  0
  -18.6553  -39.0494   -8.4605 C   0  0  0  0  0  0  0  0  0  0  0  0
  -17.3610  -38.3441   -8.2789 C   0  0  1  0  0  0  0  0  0  0  0  0
  -16.9625  -38.1487   -6.9630 O   0  0  0  0  0  0  0  0  0  0  0  0
  -16.1802  -38.9721   -9.0148 C   0  0  2  0  0  0  0  0  0  0  0  0
  -15.2961  -37.8695   -9.4960 C   0  0  0  0  0  0  0  0  0  0  0  0
  -14.1288  -38.3193  -10.3462 C   0  0  2  0  0  0  0  0  0  0  0  0
  -14.5131  -38.8685  -11.6726 C   0  0  0  0  0  0  0  0  0  0  0  0
  -13.1832  -39.1589   -9.5365 C   0  0  0  0  0  0  0  0  0  0  0  0
  -11.9352  -39.5197  -10.2645 C   0  0  0  0  0  0  0  0  0  0  0  0
  -11.5197  -40.9446   -9.9209 C   0  0  0  0  0  0  0  0  0  0  0  0
  -11.3274  -41.7772  -11.1630 C   0  0  0  0  0  0  0  0  0  0  0  0
  -10.4526  -42.9481  -10.8420 C   0  0  0  0  0  0  0  0  0  0  0  0
  -11.0238  -43.8200   -9.7524 C   0  0  0  0  0  0  0  0  0  0  0  0
  -12.2607  -44.5807  -10.1713 C   0  0  0  0  0  0  0  0  0  0  0  0
  -13.2821  -44.3166   -9.2145 N   0  0  0  0  0  0  0  0  0  0  0  0
  -14.5676  -43.6844   -9.3215 C   0  0  0  0  0  0  0  0  0  0  0  0
  -14.9817  -42.4934   -9.8682 C   0  0  0  0  0  0  0  0  0  0  0  0
  -16.3204  -42.1859   -9.7651 C   0  0  0  0  0  0  0  0  0  0  0  0
  -17.1837  -43.1076   -9.1121 C   0  0  0  0  0  0  0  0  0  0  0  0
  -16.7653  -44.2943   -8.5703 C   0  0  0  0  0  0  0  0  0  0  0  0
  -17.7217  -45.2215   -7.8948 C   0  0  0  0  0  0  0  0  0  0  0  0
  -15.4754  -44.5328   -8.6972 N   0  0  0  0  0  0  0  0  0  0  0  0
  -17.1005  -41.0268  -10.2023 C   0  0  0  0  0  0  0  0  0  0  0  0
  -18.3001  -41.2186  -10.7236 O   0  0  0  0  0  0  0  0  0  0  0  0
  -16.8129  -39.6349  -10.1767 N   0  0  0  0  0  0  0  0  0  0  0  0
  -21.8963  -39.9233   -6.2404 C   0  0  0  0  0  0  0  0  0  0  0  0
  1  2  1  0
  2  3  1  0
  2  4  1  0
  4  5  2  0
  5  6  1  0
  6  7  2  0
  7  8  1  0
  8  9  1  0
  9 10  1  0
 10 11  1  0
 11 12  1  0
 12 13  1  1
 12 14  1  0
 14 15  1  6
 15 16  1  0
 16 17  1  6
 16 18  1  0
 18 19  1  0
 19 20  1  0
 20 21  1  0
 21 22  1  0
 22 23  1  0
 23 24  1  0
 24 25  1  0
 25 26  1  0
 26 27  2  0
 27 28  1  0
 28 29  2  0
 29 30  1  0
 30 31  1  0
 30 32  2  0
 28 33  1  0
 33 34  2  0
 33 35  1  0
  8 36  2  0
 32 26  1  0
 35 14  1  0
 36  4  1  0
M  END
$$$$
