
     RDKit          3D

 36 38  0  0  0  0  0  0  0  0999 V2000
  -14.5807  -34.9686  -13.1593 C   0  0  0  0  0  0  0  0  0  0  0  0
  -15.1360  -36.2827  -12.6463 C   0  0  0  0  0  0  0  0  0  0  0  0
  -16.2481  -35.9176  -11.6553 C   0  0  0  0  0  0  0  0  0  0  0  0
  -14.0797  -37.0782  -11.9607 C   0  0  0  0  0  0  0  0  0  0  0  0
  -12.8586  -36.4794  -11.7504 C   0  0  0  0  0  0  0  0  0  0  0  0
  -11.8482  -37.1432  -11.1241 C   0  0  0  0  0  0  0  0  0  0  0  0
  -12.0782  -38.4543  -10.6965 C   0  0  0  0  0  0  0  0  0  0  0  0
  -13.2755  -39.0878  -10.8850 C   0  0  0  0  0  0  0  0  0  0  0  0
  -13.4708  -40.4681  -10.4064 C   0  0  0  0  0  0  0  0  0  0  0  0
  -13.7396  -40.6131   -9.0194 N   0  0  0  0  0  0  0  0  0  0  0  0
  -15.0875  -40.7591   -8.6164 C   0  0  0  0  0  0  0  0  0  0  0  0
  -15.7471  -39.5798   -7.9999 C   0  0  1  0  0  0  0  0  0  0  0  0
  -15.7256  -38.4154   -8.7561 O   0  0  0  0  0  0  0  0  0  0  0  0
  -17.1941  -39.8069   -7.5701 C   0  0  2  0  0  0  0  0  0  0  0  0
  -17.7592  -38.4943   -7.1376 C   0  0  0  0  0  0  0  0  0  0  0  0
  -19.1609  -38.5636   -6.5735 C   0  0  2  0  0  0  0  0  0  0  0  0
  -19.2623  -39.2705   -5.2702 C   0  0  0  0  0  0  0  0  0  0  0  0
  -20.1318  -38.9977   -7.6335 C   0  0  0  0  0  0  0  0  0  0  0  0
  -21.5537  -38.9505   -7.1935 C   0  0  0  0  0  0  0  0  0  0  0  0
  -22.3211  -40.1349   -7.7673 C   0  0  0  0  0  0  0  0  0  0  0  0
  -23.0277  -40.9104   -6.6846 C   0  0  0  0  0  0  0  0  0  0  0  0
  -24.1426  -41.7024   -7.2921 C   0  0  0  0  0  0  0  0  0  0  0  0
  -23.6640  -42.6645   -8.3498 C   0  0  0  0  0  0  0  0  0  0  0  0
  -22.8539  -43.8156   -7.7997 C   0  0  0  0  0  0  0  0  0  0  0  0
  -21.6239  -43.8671   -8.5158 N   0  0  0  0  0  0  0  0  0  0  0  0
  -20.2569  -43.7101   -8.1028 C   0  0  0  0  0  0  0  0  0  0  0  0
  -19.6088  -42.7545   -7.3576 C   0  0  0  0  0  0  0  0  0  0  0  0
  -18.2523  -42.9112   -7.1769 C   0  0  0  0  0  0  0  0  0  0  0  0
  -17.6121  -44.0387   -7.7603 C   0  0  0  0  0  0  0  0  0  0  0  0
  -18.2639  -44.9890   -8.5011 C   0  0  0  0  0  0  0  0  0  0  0  0
  -17.5348  -46.1519   -9.0900 C   0  0  0  0  0  0  0  0  0  0  0  0
  -19.5583  -44.7849   -8.6417 N   0  0  0  0  0  0  0  0  0  0  0  0
  -17.2531  -42.1037   -6.4747 C   0  0  0  0  0  0  0  0  0  0  0  0
  -16.3169  -42.7119   -5.7668 O   0  0  0  0  0  0  0  0  0  0  0  0
  -17.0677  -40.6967   -6.3945 N   0  0  0  0  0  0  0  0  0  0  0  0
  -14.2778  -38.3763  -11.5271 C   0  0  0  0  0  0  0  0  0  0  0  0
  1  2  1  0
  2  3  1  0
  2  4  1  0
  4  5  2  0
  5  6  1  0
  6  7  2  0
  7  8  1  0
  8  9  1  0
  9 10  1  0
 10 11  1  0
 11 12  1  0
 12 13  1  6
 12 14  1  0
 14 15  1  1
 15 16  1  0
 16 17  1  1
 16 18  1  0
 18 19  1  0
 19 20  1  0
 20 21  1  0
 21 22  1  0
 22 23  1  0
 23 24  1  0
 24 25  1  0
 25 26  1  0
 26 27  2  0
 27 28  1  0
 28 29  2  0
 29 30  1  0
 30 31  1  0
 30 32  2  0
 28 33  1  0
 33 34  2  0
 33 35  1  0
  8 36  2  0
 32 26  1  0
 35 14  1  0
 36  4  1  0
M  END
$$$$
