
     RDKit          3D

 36 38  0  0  0  0  0  0  0  0999 V2000
  -15.2422  -33.4531  -12.2603 C   0  0  0  0  0  0  0  0  0  0  0  0
  -14.8415  -34.4902  -11.2296 C   0  0  0  0  0  0  0  0  0  0  0  0
  -13.3194  -34.3761  -11.0798 C   0  0  0  0  0  0  0  0  0  0  0  0
  -15.2107  -35.8612  -11.6794 C   0  0  0  0  0  0  0  0  0  0  0  0
  -15.8654  -35.9886  -12.8831 C   0  0  0  0  0  0  0  0  0  0  0  0
  -16.2278  -37.2110  -13.3609 C   0  0  0  0  0  0  0  0  0  0  0  0
  -15.9194  -38.3415  -12.5984 C   0  0  0  0  0  0  0  0  0  0  0  0
  -15.2705  -38.2612  -11.3972 C   0  0  0  0  0  0  0  0  0  0  0  0
  -14.9594  -39.4843  -10.6358 C   0  0  0  0  0  0  0  0  0  0  0  0
  -15.9330  -39.8887   -9.6841 N   0  0  0  0  0  0  0  0  0  0  0  0
  -16.4360  -38.9119   -8.7934 C   0  0  0  0  0  0  0  0  0  0  0  0
  -16.4694  -39.2576   -7.3494 C   0  0  1  0  0  0  0  0  0  0  0  0
  -16.1516  -38.2253   -6.4766 O   0  0  0  0  0  0  0  0  0  0  0  0
  -17.7847  -39.8628   -6.8656 C   0  0  2  0  0  0  0  0  0  0  0  0
  -17.6889  -40.0560   -5.3883 C   0  0  0  0  0  0  0  0  0  0  0  0
  -18.8763  -40.7537   -4.7628 C   0  0  2  0  0  0  0  0  0  0  0  0
  -19.0203  -42.1817   -5.1481 C   0  0  0  0  0  0  0  0  0  0  0  0
  -20.1108  -39.9093   -4.8969 C   0  0  0  0  0  0  0  0  0  0  0  0
  -21.2915  -40.4633   -4.1782 C   0  0  0  0  0  0  0  0  0  0  0  0
  -22.5582  -40.2329   -4.9926 C   0  0  0  0  0  0  0  0  0  0  0  0
  -23.3128  -41.5192   -5.2137 C   0  0  0  0  0  0  0  0  0  0  0  0
  -24.7402  -41.2054   -5.5351 C   0  0  0  0  0  0  0  0  0  0  0  0
  -24.8837  -40.3374   -6.7598 C   0  0  0  0  0  0  0  0  0  0  0  0
  -24.5205  -41.0413   -8.0469 C   0  0  0  0  0  0  0  0  0  0  0  0
  -23.5628  -40.2383   -8.7298 N   0  0  0  0  0  0  0  0  0  0  0  0
  -22.1983  -40.4750   -9.1117 C   0  0  0  0  0  0  0  0  0  0  0  0
  -21.1002  -40.9325   -8.4236 C   0  0  0  0  0  0  0  0  0  0  0  0
  -19.9122  -41.0117   -9.1162 C   0  0  0  0  0  0  0  0  0  0  0  0
  -19.8930  -40.6248  -10.4841 C   0  0  0  0  0  0  0  0  0  0  0  0
  -20.9914  -40.1709  -11.1653 C   0  0  0  0  0  0  0  0  0  0  0  0
  -20.9075  -39.7777  -12.6038 C   0  0  0  0  0  0  0  0  0  0  0  0
  -22.0975  -40.1145  -10.4510 N   0  0  0  0  0  0  0  0  0  0  0  0
  -18.5658  -41.4254   -8.7169 C   0  0  0  0  0  0  0  0  0  0  0  0
  -17.8433  -42.1541   -9.5503 O   0  0  0  0  0  0  0  0  0  0  0  0
  -17.8201  -41.1841   -7.5310 N   0  0  0  0  0  0  0  0  0  0  0  0
  -14.9192  -36.9974  -10.9468 C   0  0  0  0  0  0  0  0  0  0  0  0
  1  2  1  0
  2  3  1  0
  2  4  1  0
  4  5  2  0
  5  6  1  0
  6  7  2  0
  7  8  1  0
  8  9  1  0
  9 10  1  0
 10 11  1  0
 11 12  1  0
 12 13  1  1
 12 14  1  0
 14 15  1  1
 15 16  1  0
 16 17  1  6
 16 18  1  0
 18 19  1  0
 19 20  1  0
 20 21  1  0
 21 22  1  0
 22 23  1  0
 23 24  1  0
 24 25  1  0
 25 26  1  0
 26 27  2  0
 27 28  1  0
 28 29  2  0
 29 30  1  0
 30 31  1  0
 30 32  2  0
 28 33  1  0
 33 34  2  0
 33 35  1  0
  8 36  2  0
 32 26  1  0
 35 14  1  0
 36  4  1  0
M  END
$$$$
