
     RDKit          3D

 36 38  0  0  0  0  0  0  0  0999 V2000
  -11.3807  -35.6441  -12.0222 C   0  0  0  0  0  0  0  0  0  0  0  0
  -12.8204  -35.9212  -12.4084 C   0  0  0  0  0  0  0  0  0  0  0  0
  -13.6868  -35.2093  -11.3621 C   0  0  0  0  0  0  0  0  0  0  0  0
  -13.1042  -37.3833  -12.3996 C   0  0  0  0  0  0  0  0  0  0  0  0
  -13.1701  -38.0328  -13.6111 C   0  0  0  0  0  0  0  0  0  0  0  0
  -13.4188  -39.3697  -13.6799 C   0  0  0  0  0  0  0  0  0  0  0  0
  -13.6075  -40.0736  -12.4867 C   0  0  0  0  0  0  0  0  0  0  0  0
  -13.5509  -39.4685  -11.2616 C   0  0  0  0  0  0  0  0  0  0  0  0
  -13.7471  -40.2573  -10.0320 C   0  0  0  0  0  0  0  0  0  0  0  0
  -14.5185  -39.6383   -9.0128 N   0  0  0  0  0  0  0  0  0  0  0  0
  -15.8946  -39.9564   -8.9365 C   0  0  0  0  0  0  0  0  0  0  0  0
  -16.8250  -38.8701   -8.5363 C   0  0  1  0  0  0  0  0  0  0  0  0
  -17.1602  -37.9668   -9.5363 O   0  0  0  0  0  0  0  0  0  0  0  0
  -18.1321  -39.3454   -7.9070 C   0  0  2  0  0  0  0  0  0  0  0  0
  -18.9329  -38.1403   -7.5390 C   0  0  0  0  0  0  0  0  0  0  0  0
  -20.2182  -38.4363   -6.7985 C   0  0  2  0  0  0  0  0  0  0  0  0
  -20.0246  -38.9806   -5.4293 C   0  0  0  0  0  0  0  0  0  0  0  0
  -21.1677  -39.1962   -7.6793 C   0  0  0  0  0  0  0  0  0  0  0  0
  -22.5114  -39.3991   -7.0703 C   0  0  0  0  0  0  0  0  0  0  0  0
  -23.0446  -40.7820   -7.4225 C   0  0  0  0  0  0  0  0  0  0  0  0
  -23.4443  -41.5494   -6.1879 C   0  0  0  0  0  0  0  0  0  0  0  0
  -24.4065  -42.6305   -6.5683 C   0  0  0  0  0  0  0  0  0  0  0  0
  -23.8319  -43.5924   -7.5774 C   0  0  0  0  0  0  0  0  0  0  0  0
  -22.7309  -44.4664   -7.0224 C   0  0  0  0  0  0  0  0  0  0  0  0
  -21.6000  -44.3429   -7.8793 N   0  0  0  0  0  0  0  0  0  0  0  0
  -20.2696  -43.8476   -7.6597 C   0  0  0  0  0  0  0  0  0  0  0  0
  -19.7826  -42.6905   -7.1006 C   0  0  0  0  0  0  0  0  0  0  0  0
  -18.4147  -42.5303   -7.0777 C   0  0  0  0  0  0  0  0  0  0  0  0
  -17.5983  -43.5588   -7.6226 C   0  0  0  0  0  0  0  0  0  0  0  0
  -18.0895  -44.7111   -8.1774 C   0  0  0  0  0  0  0  0  0  0  0  0
  -17.1794  -45.7557   -8.7354 C   0  0  0  0  0  0  0  0  0  0  0  0
  -19.4039  -44.8072   -8.1732 N   0  0  0  0  0  0  0  0  0  0  0  0
  -17.5585  -41.4472   -6.5908 C   0  0  0  0  0  0  0  0  0  0  0  0
  -16.4423  -41.7485   -5.9498 O   0  0  0  0  0  0  0  0  0  0  0  0
  -17.6893  -40.0342   -6.6744 N   0  0  0  0  0  0  0  0  0  0  0  0
  -13.2954  -38.1057  -11.2359 C   0  0  0  0  0  0  0  0  0  0  0  0
  1  2  1  0
  2  3  1  0
  2  4  1  0
  4  5  2  0
  5  6  1  0
  6  7  2  0
  7  8  1  0
  8  9  1  0
  9 10  1  0
 10 11  1  0
 11 12  1  0
 12 13  1  6
 12 14  1  0
 14 15  1  1
 15 16  1  0
 16 17  1  1
 16 18  1  0
 18 19  1  0
 19 20  1  0
 20 21  1  0
 21 22  1  0
 22 23  1  0
 23 24  1  0
 24 25  1  0
 25 26  1  0
 26 27  2  0
 27 28  1  0
 28 29  2  0
 29 30  1  0
 30 31  1  0
 30 32  2  0
 28 33  1  0
 33 34  2  0
 33 35  1  0
  8 36  2  0
 32 26  1  0
 35 14  1  0
 36  4  1  0
M  END
$$$$
