
     RDKit          3D

 36 38  0  0  0  0  0  0  0  0999 V2000
  -21.8729  -38.1593   -4.3093 C   0  0  0  0  0  0  0  0  0  0  0  0
  -22.8311  -39.0063   -5.1236 C   0  0  0  0  0  0  0  0  0  0  0  0
  -23.5609  -39.9079   -4.1203 C   0  0  0  0  0  0  0  0  0  0  0  0
  -22.0972  -39.8364   -6.1190 C   0  0  0  0  0  0  0  0  0  0  0  0
  -22.7884  -40.2744   -7.2254 C   0  0  0  0  0  0  0  0  0  0  0  0
  -22.1808  -41.0314   -8.1802 C   0  0  0  0  0  0  0  0  0  0  0  0
  -20.8315  -41.3569   -8.0122 C   0  0  0  0  0  0  0  0  0  0  0  0
  -20.1068  -40.9435   -6.9286 C   0  0  0  0  0  0  0  0  0  0  0  0
  -18.6835  -41.3053   -6.8028 C   0  0  0  0  0  0  0  0  0  0  0  0
  -17.7695  -40.2201   -6.7393 N   0  0  0  0  0  0  0  0  0  0  0  0
  -17.0319  -39.9049   -7.9043 C   0  0  0  0  0  0  0  0  0  0  0  0
  -16.5425  -38.5097   -8.0454 C   0  0  1  0  0  0  0  0  0  0  0  0
  -15.7531  -38.0413   -7.0034 O   0  0  0  0  0  0  0  0  0  0  0  0
  -15.7880  -38.2233   -9.3411 C   0  0  2  0  0  0  0  0  0  0  0  0
  -15.9072  -36.7639   -9.6325 C   0  0  0  0  0  0  0  0  0  0  0  0
  -15.3036  -36.3299  -10.9498 C   0  0  2  0  0  0  0  0  0  0  0  0
  -16.0199  -36.8381  -12.1486 C   0  0  0  0  0  0  0  0  0  0  0  0
  -13.8161  -36.5345  -10.9375 C   0  0  0  0  0  0  0  0  0  0  0  0
  -13.1314  -35.9963  -12.1456 C   0  0  0  0  0  0  0  0  0  0  0  0
  -12.0004  -36.9262  -12.5667 C   0  0  0  0  0  0  0  0  0  0  0  0
  -12.1279  -37.3285  -14.0140 C   0  0  0  0  0  0  0  0  0  0  0  0
  -10.7943  -37.7812  -14.5199 C   0  0  0  0  0  0  0  0  0  0  0  0
  -10.2384  -38.9433  -13.7363 C   0  0  0  0  0  0  0  0  0  0  0  0
  -10.9989  -40.2328  -13.9437 C   0  0  0  0  0  0  0  0  0  0  0  0
  -11.3569  -40.7409  -12.6622 N   0  0  0  0  0  0  0  0  0  0  0  0
  -12.6280  -40.9861  -12.0395 C   0  0  0  0  0  0  0  0  0  0  0  0
  -13.7566  -40.2178  -11.8828 C   0  0  0  0  0  0  0  0  0  0  0  0
  -14.8078  -40.7782  -11.1913 C   0  0  0  0  0  0  0  0  0  0  0  0
  -14.6670  -42.1015  -10.6909 C   0  0  0  0  0  0  0  0  0  0  0  0
  -13.5398  -42.8633  -10.8516 C   0  0  0  0  0  0  0  0  0  0  0  0
  -13.4518  -44.2488  -10.3008 C   0  0  0  0  0  0  0  0  0  0  0  0
  -12.5678  -42.2740  -11.5185 N   0  0  0  0  0  0  0  0  0  0  0  0
  -16.1284  -40.2651  -10.8223 C   0  0  0  0  0  0  0  0  0  0  0  0
  -17.1761  -41.0670  -10.9055 O   0  0  0  0  0  0  0  0  0  0  0  0
  -16.5455  -38.9887  -10.3561 N   0  0  0  0  0  0  0  0  0  0  0  0
  -20.7635  -40.1745   -5.9795 C   0  0  0  0  0  0  0  0  0  0  0  0
  1  2  1  0
  2  3  1  0
  2  4  1  0
  4  5  2  0
  5  6  1  0
  6  7  2  0
  7  8  1  0
  8  9  1  0
  9 10  1  0
 10 11  1  0
 11 12  1  0
 12 13  1  1
 12 14  1  0
 14 15  1  6
 15 16  1  0
 16 17  1  6
 16 18  1  0
 18 19  1  0
 19 20  1  0
 20 21  1  0
 21 22  1  0
 22 23  1  0
 23 24  1  0
 24 25  1  0
 25 26  1  0
 26 27  2  0
 27 28  1  0
 28 29  2  0
 29 30  1  0
 30 31  1  0
 30 32  2  0
 28 33  1  0
 33 34  2  0
 33 35  1  0
  8 36  2  0
 32 26  1  0
 35 14  1  0
 36  4  1  0
M  END
$$$$
