
     RDKit          3D

 36 38  0  0  0  0  0  0  0  0999 V2000
  -19.6683  -35.2671  -13.8475 C   0  0  0  0  0  0  0  0  0  0  0  0
  -18.2010  -35.6432  -13.7828 C   0  0  0  0  0  0  0  0  0  0  0  0
  -17.5719  -35.1304  -15.0841 C   0  0  0  0  0  0  0  0  0  0  0  0
  -18.0316  -37.1193  -13.6787 C   0  0  0  0  0  0  0  0  0  0  0  0
  -18.7883  -37.9136  -14.5096 C   0  0  0  0  0  0  0  0  0  0  0  0
  -18.6815  -39.2705  -14.4749 C   0  0  0  0  0  0  0  0  0  0  0  0
  -17.7815  -39.8441  -13.5718 C   0  0  0  0  0  0  0  0  0  0  0  0
  -17.0104  -39.0932  -12.7281 C   0  0  0  0  0  0  0  0  0  0  0  0
  -16.0689  -39.7460  -11.8008 C   0  0  0  0  0  0  0  0  0  0  0  0
  -16.0067  -39.1999  -10.4912 N   0  0  0  0  0  0  0  0  0  0  0  0
  -17.2219  -39.0122   -9.7922 C   0  0  0  0  0  0  0  0  0  0  0  0
  -17.1365  -38.7542   -8.3321 C   0  0  1  0  0  0  0  0  0  0  0  0
  -17.3819  -37.4455   -7.9376 O   0  0  0  0  0  0  0  0  0  0  0  0
  -18.0183  -39.6536   -7.4697 C   0  0  2  0  0  0  0  0  0  0  0  0
  -17.7540  -39.3243   -6.0377 C   0  0  0  0  0  0  0  0  0  0  0  0
  -18.4716  -40.2083   -5.0419 C   0  0  2  0  0  0  0  0  0  0  0  0
  -17.9973  -41.6165   -5.0201 C   0  0  0  0  0  0  0  0  0  0  0  0
  -19.9573  -40.0170   -5.1465 C   0  0  0  0  0  0  0  0  0  0  0  0
  -20.7262  -40.7456   -4.0998 C   0  0  0  0  0  0  0  0  0  0  0  0
  -22.0140  -41.3073   -4.6890 C   0  0  0  0  0  0  0  0  0  0  0  0
  -22.1386  -42.7873   -4.4307 C   0  0  0  0  0  0  0  0  0  0  0  0
  -23.5758  -43.1888   -4.5424 C   0  0  0  0  0  0  0  0  0  0  0  0
  -24.1635  -42.8774   -5.8957 C   0  0  0  0  0  0  0  0  0  0  0  0
  -23.6102  -43.7371   -7.0087 C   0  0  0  0  0  0  0  0  0  0  0  0
  -23.1483  -42.8722   -8.0416 N   0  0  0  0  0  0  0  0  0  0  0  0
  -21.8459  -42.6473   -8.6046 C   0  0  0  0  0  0  0  0  0  0  0  0
  -20.6174  -42.3881   -8.0458 C   0  0  0  0  0  0  0  0  0  0  0  0
  -19.5620  -42.1944   -8.9095 C   0  0  0  0  0  0  0  0  0  0  0  0
  -19.8014  -42.2768  -10.3085 C   0  0  0  0  0  0  0  0  0  0  0  0
  -21.0283  -42.5370  -10.8597 C   0  0  0  0  0  0  0  0  0  0  0  0
  -21.2170  -42.6099  -12.3395 C   0  0  0  0  0  0  0  0  0  0  0  0
  -21.9989  -42.7108   -9.9853 N   0  0  0  0  0  0  0  0  0  0  0  0
  -18.1485  -41.8874   -8.6832 C   0  0  0  0  0  0  0  0  0  0  0  0
  -17.2336  -42.4839   -9.4279 O   0  0  0  0  0  0  0  0  0  0  0  0
  -17.5114  -41.0130   -7.7612 N   0  0  0  0  0  0  0  0  0  0  0  0
  -17.1499  -37.7150  -12.7953 C   0  0  0  0  0  0  0  0  0  0  0  0
  1  2  1  0
  2  3  1  0
  2  4  1  0
  4  5  2  0
  5  6  1  0
  6  7  2  0
  7  8  1  0
  8  9  1  0
  9 10  1  0
 10 11  1  0
 11 12  1  0
 12 13  1  6
 12 14  1  0
 14 15  1  1
 15 16  1  0
 16 17  1  6
 16 18  1  0
 18 19  1  0
 19 20  1  0
 20 21  1  0
 21 22  1  0
 22 23  1  0
 23 24  1  0
 24 25  1  0
 25 26  1  0
 26 27  2  0
 27 28  1  0
 28 29  2  0
 29 30  1  0
 30 31  1  0
 30 32  2  0
 28 33  1  0
 33 34  2  0
 33 35  1  0
  8 36  2  0
 32 26  1  0
 35 14  1  0
 36  4  1  0
M  END
$$$$
