
     RDKit          3D

 36 38  0  0  0  0  0  0  0  0999 V2000
  -15.0914  -34.2477  -12.1820 C   0  0  0  0  0  0  0  0  0  0  0  0
  -13.7251  -34.7125  -11.7174 C   0  0  0  0  0  0  0  0  0  0  0  0
  -12.7034  -33.8506  -12.4693 C   0  0  0  0  0  0  0  0  0  0  0  0
  -13.5136  -36.1521  -12.0352 C   0  0  0  0  0  0  0  0  0  0  0  0
  -13.1700  -36.4819  -13.3264 C   0  0  0  0  0  0  0  0  0  0  0  0
  -12.9543  -37.7767  -13.6881 C   0  0  0  0  0  0  0  0  0  0  0  0
  -13.0902  -38.7709  -12.7145 C   0  0  0  0  0  0  0  0  0  0  0  0
  -13.4302  -38.4883  -11.4203 C   0  0  0  0  0  0  0  0  0  0  0  0
  -13.5512  -39.5721  -10.4288 C   0  0  0  0  0  0  0  0  0  0  0  0
  -13.9650  -39.1811   -9.1277 N   0  0  0  0  0  0  0  0  0  0  0  0
  -15.1996  -39.6764   -8.6472 C   0  0  0  0  0  0  0  0  0  0  0  0
  -16.4389  -39.0997   -9.2281 C   0  0  1  0  0  0  0  0  0  0  0  0
  -16.7262  -39.4823  -10.5318 O   0  0  0  0  0  0  0  0  0  0  0  0
  -17.7024  -39.3350   -8.4046 C   0  0  2  0  0  0  0  0  0  0  0  0
  -18.2666  -38.0037   -8.0330 C   0  0  0  0  0  0  0  0  0  0  0  0
  -19.4683  -38.0589   -7.1160 C   0  0  2  0  0  0  0  0  0  0  0  0
  -19.1698  -38.5460   -5.7441 C   0  0  0  0  0  0  0  0  0  0  0  0
  -20.6268  -38.7165   -7.8090 C   0  0  0  0  0  0  0  0  0  0  0  0
  -21.8903  -38.6787   -7.0219 C   0  0  0  0  0  0  0  0  0  0  0  0
  -22.6574  -39.9834   -7.1963 C   0  0  0  0  0  0  0  0  0  0  0  0
  -22.9905  -40.6089   -5.8656 C   0  0  0  0  0  0  0  0  0  0  0  0
  -24.1391  -41.5526   -6.0373 C   0  0  0  0  0  0  0  0  0  0  0  0
  -23.8493  -42.6470   -7.0333 C   0  0  0  0  0  0  0  0  0  0  0  0
  -22.8185  -43.6435   -6.5554 C   0  0  0  0  0  0  0  0  0  0  0  0
  -21.8085  -43.7419   -7.5547 N   0  0  0  0  0  0  0  0  0  0  0  0
  -20.4038  -43.4412   -7.5432 C   0  0  0  0  0  0  0  0  0  0  0  0
  -19.6861  -42.3404   -7.1409 C   0  0  0  0  0  0  0  0  0  0  0  0
  -18.3191  -42.3874   -7.3028 C   0  0  0  0  0  0  0  0  0  0  0  0
  -17.7386  -43.5572   -7.8649 C   0  0  0  0  0  0  0  0  0  0  0  0
  -18.4591  -44.6522   -8.2628 C   0  0  0  0  0  0  0  0  0  0  0  0
  -17.7909  -45.8528   -8.8485 C   0  0  0  0  0  0  0  0  0  0  0  0
  -19.7610  -44.5485   -8.0859 N   0  0  0  0  0  0  0  0  0  0  0  0
  -17.2597  -41.4195   -7.0126 C   0  0  0  0  0  0  0  0  0  0  0  0
  -16.1209  -41.8482   -6.4958 O   0  0  0  0  0  0  0  0  0  0  0  0
  -17.1987  -40.0102   -7.1880 N   0  0  0  0  0  0  0  0  0  0  0  0
  -13.6412  -37.1571  -11.0938 C   0  0  0  0  0  0  0  0  0  0  0  0
  1  2  1  0
  2  3  1  0
  2  4  1  0
  4  5  2  0
  5  6  1  0
  6  7  2  0
  7  8  1  0
  8  9  1  0
  9 10  1  0
 10 11  1  0
 11 12  1  0
 12 13  1  6
 12 14  1  0
 14 15  1  1
 15 16  1  0
 16 17  1  1
 16 18  1  0
 18 19  1  0
 19 20  1  0
 20 21  1  0
 21 22  1  0
 22 23  1  0
 23 24  1  0
 24 25  1  0
 25 26  1  0
 26 27  2  0
 27 28  1  0
 28 29  2  0
 29 30  1  0
 30 31  1  0
 30 32  2  0
 28 33  1  0
 33 34  2  0
 33 35  1  0
  8 36  2  0
 32 26  1  0
 35 14  1  0
 36  4  1  0
M  END
$$$$
