
     RDKit          3D

 36 38  0  0  0  0  0  0  0  0999 V2000
  -20.1844  -32.3757   -7.9158 C   0  0  0  0  0  0  0  0  0  0  0  0
  -19.3324  -32.9231   -9.0441 C   0  0  0  0  0  0  0  0  0  0  0  0
  -19.8236  -32.2330  -10.3226 C   0  0  0  0  0  0  0  0  0  0  0  0
  -19.4904  -34.3992   -9.1655 C   0  0  0  0  0  0  0  0  0  0  0  0
  -20.7564  -34.9231   -9.0361 C   0  0  0  0  0  0  0  0  0  0  0  0
  -20.9776  -36.2624   -9.1422 C   0  0  0  0  0  0  0  0  0  0  0  0
  -19.8851  -37.0999   -9.3865 C   0  0  0  0  0  0  0  0  0  0  0  0
  -18.6107  -36.6223   -9.5216 C   0  0  0  0  0  0  0  0  0  0  0  0
  -17.4938  -37.5462   -9.7886 C   0  0  0  0  0  0  0  0  0  0  0  0
  -16.5451  -37.6935   -8.7421 N   0  0  0  0  0  0  0  0  0  0  0  0
  -16.8848  -38.5269   -7.6509 C   0  0  0  0  0  0  0  0  0  0  0  0
  -15.9196  -39.5930   -7.2801 C   0  0  1  0  0  0  0  0  0  0  0  0
  -15.8498  -39.8964   -5.9267 O   0  0  0  0  0  0  0  0  0  0  0  0
  -16.1048  -40.9125   -8.0248 C   0  0  2  0  0  0  0  0  0  0  0  0
  -14.8521  -41.1929   -8.7871 C   0  0  0  0  0  0  0  0  0  0  0  0
  -14.9107  -42.4174   -9.6732 C   0  0  2  0  0  0  0  0  0  0  0  0
  -15.8327  -42.2912  -10.8319 C   0  0  0  0  0  0  0  0  0  0  0  0
  -15.0658  -43.6586   -8.8425 C   0  0  0  0  0  0  0  0  0  0  0  0
  -14.9861  -44.9178   -9.6335 C   0  0  0  0  0  0  0  0  0  0  0  0
  -15.9813  -45.9391   -9.0973 C   0  0  0  0  0  0  0  0  0  0  0  0
  -16.8819  -46.4571  -10.1897 C   0  0  0  0  0  0  0  0  0  0  0  0
  -17.4586  -47.7731   -9.7717 C   0  0  0  0  0  0  0  0  0  0  0  0
  -18.2473  -47.6821   -8.4897 C   0  0  0  0  0  0  0  0  0  0  0  0
  -19.5402  -46.9118   -8.6274 C   0  0  0  0  0  0  0  0  0  0  0  0
  -19.5585  -45.9037   -7.6215 N   0  0  0  0  0  0  0  0  0  0  0  0
  -19.5888  -44.4691   -7.6902 C   0  0  0  0  0  0  0  0  0  0  0  0
  -18.8397  -43.5499   -8.3846 C   0  0  0  0  0  0  0  0  0  0  0  0
  -19.1344  -42.2192   -8.1855 C   0  0  0  0  0  0  0  0  0  0  0  0
  -20.1842  -41.8798   -7.2889 C   0  0  0  0  0  0  0  0  0  0  0  0
  -20.9288  -42.8009   -6.6004 C   0  0  0  0  0  0  0  0  0  0  0  0
  -22.0195  -42.3814   -5.6703 C   0  0  0  0  0  0  0  0  0  0  0  0
  -20.5999  -44.0564   -6.8293 N   0  0  0  0  0  0  0  0  0  0  0  0
  -18.5505  -40.9901   -8.7258 C   0  0  0  0  0  0  0  0  0  0  0  0
  -19.3501  -39.9941   -9.0666 O   0  0  0  0  0  0  0  0  0  0  0  0
  -17.2009  -40.6198   -8.9749 N   0  0  0  0  0  0  0  0  0  0  0  0
  -18.4289  -35.2522   -9.4066 C   0  0  0  0  0  0  0  0  0  0  0  0
  1  2  1  0
  2  3  1  0
  2  4  1  0
  4  5  2  0
  5  6  1  0
  6  7  2  0
  7  8  1  0
  8  9  1  0
  9 10  1  0
 10 11  1  0
 11 12  1  0
 12 13  1  1
 12 14  1  0
 14 15  1  6
 15 16  1  0
 16 17  1  6
 16 18  1  0
 18 19  1  0
 19 20  1  0
 20 21  1  0
 21 22  1  0
 22 23  1  0
 23 24  1  0
 24 25  1  0
 25 26  1  0
 26 27  2  0
 27 28  1  0
 28 29  2  0
 29 30  1  0
 30 31  1  0
 30 32  2  0
 28 33  1  0
 33 34  2  0
 33 35  1  0
  8 36  2  0
 32 26  1  0
 35 14  1  0
 36  4  1  0
M  END
$$$$
