
     RDKit          3D

 36 38  0  0  0  0  0  0  0  0999 V2000
  -13.6830  -41.9679  -14.0651 C   0  0  0  0  0  0  0  0  0  0  0  0
  -12.5726  -41.0555  -13.5825 C   0  0  0  0  0  0  0  0  0  0  0  0
  -11.8263  -41.8329  -12.4912 C   0  0  0  0  0  0  0  0  0  0  0  0
  -13.1252  -39.7904  -13.0234 C   0  0  0  0  0  0  0  0  0  0  0  0
  -13.9203  -39.0196  -13.8404 C   0  0  0  0  0  0  0  0  0  0  0  0
  -14.4655  -37.8541  -13.3952 C   0  0  0  0  0  0  0  0  0  0  0  0
  -14.1990  -37.4537  -12.0824 C   0  0  0  0  0  0  0  0  0  0  0  0
  -13.4145  -38.1883  -11.2367 C   0  0  0  0  0  0  0  0  0  0  0  0
  -13.1719  -37.7276   -9.8578 C   0  0  0  0  0  0  0  0  0  0  0  0
  -14.3281  -37.4213   -9.0921 N   0  0  0  0  0  0  0  0  0  0  0  0
  -15.0029  -38.4879   -8.4537 C   0  0  0  0  0  0  0  0  0  0  0  0
  -15.9014  -38.1467   -7.3213 C   0  0  1  0  0  0  0  0  0  0  0  0
  -16.2708  -36.8113   -7.2285 O   0  0  0  0  0  0  0  0  0  0  0  0
  -17.1841  -38.9712   -7.2502 C   0  0  2  0  0  0  0  0  0  0  0  0
  -18.0669  -38.3640   -6.2105 C   0  0  0  0  0  0  0  0  0  0  0  0
  -19.3412  -39.1310   -5.9354 C   0  0  2  0  0  0  0  0  0  0  0  0
  -19.1332  -40.4503   -5.2836 C   0  0  0  0  0  0  0  0  0  0  0  0
  -20.2261  -39.1298   -7.1485 C   0  0  0  0  0  0  0  0  0  0  0  0
  -21.5627  -39.7416   -6.9106 C   0  0  0  0  0  0  0  0  0  0  0  0
  -21.9999  -40.5407   -8.1319 C   0  0  0  0  0  0  0  0  0  0  0  0
  -22.3673  -41.9553   -7.7623 C   0  0  0  0  0  0  0  0  0  0  0  0
  -23.2516  -42.5293   -8.8242 C   0  0  0  0  0  0  0  0  0  0  0  0
  -22.6008  -42.5326  -10.1844 C   0  0  0  0  0  0  0  0  0  0  0  0
  -21.4539  -43.5093  -10.3048 C   0  0  0  0  0  0  0  0  0  0  0  0
  -20.3207  -42.7963  -10.7905 N   0  0  0  0  0  0  0  0  0  0  0  0
  -19.0286  -42.5304  -10.2217 C   0  0  0  0  0  0  0  0  0  0  0  0
  -18.6261  -42.0392   -9.0030 C   0  0  0  0  0  0  0  0  0  0  0  0
  -17.2720  -41.8853   -8.8031 C   0  0  0  0  0  0  0  0  0  0  0  0
  -16.3825  -42.2425   -9.8531 C   0  0  0  0  0  0  0  0  0  0  0  0
  -16.7896  -42.7331  -11.0657 C   0  0  0  0  0  0  0  0  0  0  0  0
  -15.8055  -43.0897  -12.1311 C   0  0  0  0  0  0  0  0  0  0  0  0
  -18.0949  -42.8562  -11.1995 N   0  0  0  0  0  0  0  0  0  0  0  0
  -16.4952  -41.3858   -7.6671 C   0  0  0  0  0  0  0  0  0  0  0  0
  -15.3715  -41.9990   -7.3371 O   0  0  0  0  0  0  0  0  0  0  0  0
  -16.7161  -40.2949   -6.7829 N   0  0  0  0  0  0  0  0  0  0  0  0
  -12.8787  -39.3687  -11.7296 C   0  0  0  0  0  0  0  0  0  0  0  0
  1  2  1  0
  2  3  1  0
  2  4  1  0
  4  5  2  0
  5  6  1  0
  6  7  2  0
  7  8  1  0
  8  9  1  0
  9 10  1  0
 10 11  1  0
 11 12  1  0
 12 13  1  6
 12 14  1  0
 14 15  1  1
 15 16  1  0
 16 17  1  6
 16 18  1  0
 18 19  1  0
 19 20  1  0
 20 21  1  0
 21 22  1  0
 22 23  1  0
 23 24  1  0
 24 25  1  0
 25 26  1  0
 26 27  2  0
 27 28  1  0
 28 29  2  0
 29 30  1  0
 30 31  1  0
 30 32  2  0
 28 33  1  0
 33 34  2  0
 33 35  1  0
  8 36  2  0
 32 26  1  0
 35 14  1  0
 36  4  1  0
M  END
$$$$
