
     RDKit          3D

 36 38  0  0  0  0  0  0  0  0999 V2000
  -23.3230  -40.4432   -2.9767 C   0  0  0  0  0  0  0  0  0  0  0  0
  -23.2172  -39.5417   -4.1910 C   0  0  0  0  0  0  0  0  0  0  0  0
  -24.5626  -39.6484   -4.9195 C   0  0  0  0  0  0  0  0  0  0  0  0
  -22.1125  -39.9810   -5.0883 C   0  0  0  0  0  0  0  0  0  0  0  0
  -21.8609  -41.3305   -5.1852 C   0  0  0  0  0  0  0  0  0  0  0  0
  -20.8714  -41.8055   -5.9908 C   0  0  0  0  0  0  0  0  0  0  0  0
  -20.1111  -40.8881   -6.7222 C   0  0  0  0  0  0  0  0  0  0  0  0
  -20.3264  -39.5392   -6.6559 C   0  0  0  0  0  0  0  0  0  0  0  0
  -19.5033  -38.6137   -7.4550 C   0  0  0  0  0  0  0  0  0  0  0  0
  -18.1107  -38.6216   -7.1764 N   0  0  0  0  0  0  0  0  0  0  0  0
  -17.2491  -39.2312   -8.1179 C   0  0  0  0  0  0  0  0  0  0  0  0
  -15.7877  -39.0571   -7.9185 C   0  0  1  0  0  0  0  0  0  0  0  0
  -15.1615  -40.0443   -7.1690 O   0  0  0  0  0  0  0  0  0  0  0  0
  -14.9807  -38.8924   -9.2037 C   0  0  2  0  0  0  0  0  0  0  0  0
  -14.7362  -37.4344   -9.4124 C   0  0  0  0  0  0  0  0  0  0  0  0
  -14.0391  -37.0887  -10.7095 C   0  0  2  0  0  0  0  0  0  0  0  0
  -14.8536  -37.3370  -11.9275 C   0  0  0  0  0  0  0  0  0  0  0  0
  -12.6476  -37.6529  -10.7234 C   0  0  0  0  0  0  0  0  0  0  0  0
  -11.8468  -37.2324  -11.9064 C   0  0  0  0  0  0  0  0  0  0  0  0
  -10.9775  -38.3864  -12.3897 C   0  0  0  0  0  0  0  0  0  0  0  0
  -11.1941  -38.6630  -13.8558 C   0  0  0  0  0  0  0  0  0  0  0  0
  -10.0108  -39.4002  -14.3994 C   0  0  0  0  0  0  0  0  0  0  0  0
   -9.7610  -40.7056  -13.6871 C   0  0  0  0  0  0  0  0  0  0  0  0
  -10.8144  -41.7548  -13.9582 C   0  0  0  0  0  0  0  0  0  0  0  0
  -11.2914  -42.2307  -12.7035 N   0  0  0  0  0  0  0  0  0  0  0  0
  -12.5863  -42.1907  -12.0827 C   0  0  0  0  0  0  0  0  0  0  0  0
  -13.4919  -41.1787  -11.8723 C   0  0  0  0  0  0  0  0  0  0  0  0
  -14.6515  -41.5016  -11.2026 C   0  0  0  0  0  0  0  0  0  0  0  0
  -14.8424  -42.8449  -10.7779 C   0  0  0  0  0  0  0  0  0  0  0  0
  -13.9365  -43.8500  -10.9919 C   0  0  0  0  0  0  0  0  0  0  0  0
  -14.1941  -45.2434  -10.5198 C   0  0  0  0  0  0  0  0  0  0  0  0
  -12.8467  -43.4811  -11.6346 N   0  0  0  0  0  0  0  0  0  0  0  0
  -15.8068  -40.7013  -10.7926 C   0  0  0  0  0  0  0  0  0  0  0  0
  -17.0192  -41.2151  -10.9098 O   0  0  0  0  0  0  0  0  0  0  0  0
  -15.8991  -39.3898  -10.2520 N   0  0  0  0  0  0  0  0  0  0  0  0
  -21.3437  -39.0972   -5.8234 C   0  0  0  0  0  0  0  0  0  0  0  0
  1  2  1  0
  2  3  1  0
  2  4  1  0
  4  5  2  0
  5  6  1  0
  6  7  2  0
  7  8  1  0
  8  9  1  0
  9 10  1  0
 10 11  1  0
 11 12  1  0
 12 13  1  6
 12 14  1  0
 14 15  1  6
 15 16  1  0
 16 17  1  6
 16 18  1  0
 18 19  1  0
 19 20  1  0
 20 21  1  0
 21 22  1  0
 22 23  1  0
 23 24  1  0
 24 25  1  0
 25 26  1  0
 26 27  2  0
 27 28  1  0
 28 29  2  0
 29 30  1  0
 30 31  1  0
 30 32  2  0
 28 33  1  0
 33 34  2  0
 33 35  1  0
  8 36  2  0
 32 26  1  0
 35 14  1  0
 36  4  1  0
M  END
$$$$
