
     RDKit          3D

 36 38  0  0  0  0  0  0  0  0999 V2000
  -11.6421  -35.5098  -11.2837 C   0  0  0  0  0  0  0  0  0  0  0  0
  -12.4700  -36.0868  -12.4151 C   0  0  0  0  0  0  0  0  0  0  0  0
  -13.8653  -35.4643  -12.2826 C   0  0  0  0  0  0  0  0  0  0  0  0
  -12.5586  -37.5699  -12.3101 C   0  0  0  0  0  0  0  0  0  0  0  0
  -12.4128  -38.3061  -13.4636 C   0  0  0  0  0  0  0  0  0  0  0  0
  -12.4752  -39.6660  -13.4428 C   0  0  0  0  0  0  0  0  0  0  0  0
  -12.6921  -40.3034  -12.2175 C   0  0  0  0  0  0  0  0  0  0  0  0
  -12.8427  -39.6115  -11.0475 C   0  0  0  0  0  0  0  0  0  0  0  0
  -13.0595  -40.3311   -9.7796 C   0  0  0  0  0  0  0  0  0  0  0  0
  -13.8077  -39.6378   -8.7914 N   0  0  0  0  0  0  0  0  0  0  0  0
  -15.2149  -39.7800   -8.8034 C   0  0  0  0  0  0  0  0  0  0  0  0
  -15.9975  -38.9006   -7.8978 C   0  0  1  0  0  0  0  0  0  0  0  0
  -16.1506  -37.5866   -8.3204 O   0  0  0  0  0  0  0  0  0  0  0  0
  -17.3881  -39.4208   -7.5433 C   0  0  2  0  0  0  0  0  0  0  0  0
  -17.6085  -39.1936   -6.0843 C   0  0  0  0  0  0  0  0  0  0  0  0
  -18.9046  -39.7565   -5.5446 C   0  0  2  0  0  0  0  0  0  0  0  0
  -18.9700  -41.2411   -5.5338 C   0  0  0  0  0  0  0  0  0  0  0  0
  -20.0789  -39.0517   -6.1604 C   0  0  0  0  0  0  0  0  0  0  0  0
  -21.3876  -39.4506   -5.5724 C   0  0  0  0  0  0  0  0  0  0  0  0
  -22.4518  -39.5243   -6.6601 C   0  0  0  0  0  0  0  0  0  0  0  0
  -23.1480  -40.8615   -6.6601 C   0  0  0  0  0  0  0  0  0  0  0  0
  -24.4735  -40.7281   -7.3418 C   0  0  0  0  0  0  0  0  0  0  0  0
  -24.3503  -40.2408   -8.7634 C   0  0  0  0  0  0  0  0  0  0  0  0
  -23.7256  -41.2510   -9.6980 C   0  0  0  0  0  0  0  0  0  0  0  0
  -22.6413  -40.6156  -10.3680 N   0  0  0  0  0  0  0  0  0  0  0  0
  -21.2279  -40.8724  -10.3803 C   0  0  0  0  0  0  0  0  0  0  0  0
  -20.3027  -41.0608   -9.3817 C   0  0  0  0  0  0  0  0  0  0  0  0
  -18.9953  -41.2619   -9.7657 C   0  0  0  0  0  0  0  0  0  0  0  0
  -18.6848  -41.2667  -11.1531 C   0  0  0  0  0  0  0  0  0  0  0  0
  -19.6119  -41.0798  -12.1442 C   0  0  0  0  0  0  0  0  0  0  0  0
  -19.2231  -41.0945  -13.5863 C   0  0  0  0  0  0  0  0  0  0  0  0
  -20.8440  -40.8901  -11.7167 N   0  0  0  0  0  0  0  0  0  0  0  0
  -17.7660  -41.4741   -8.9994 C   0  0  0  0  0  0  0  0  0  0  0  0
  -16.8865  -42.3632   -9.4280 O   0  0  0  0  0  0  0  0  0  0  0  0
  -17.2875  -40.8742   -7.8028 N   0  0  0  0  0  0  0  0  0  0  0  0
  -12.7725  -38.2280  -11.1127 C   0  0  0  0  0  0  0  0  0  0  0  0
  1  2  1  0
  2  3  1  0
  2  4  1  0
  4  5  2  0
  5  6  1  0
  6  7  2  0
  7  8  1  0
  8  9  1  0
  9 10  1  0
 10 11  1  0
 11 12  1  0
 12 13  1  6
 12 14  1  0
 14 15  1  1
 15 16  1  0
 16 17  1  6
 16 18  1  0
 18 19  1  0
 19 20  1  0
 20 21  1  0
 21 22  1  0
 22 23  1  0
 23 24  1  0
 24 25  1  0
 25 26  1  0
 26 27  2  0
 27 28  1  0
 28 29  2  0
 29 30  1  0
 30 31  1  0
 30 32  2  0
 28 33  1  0
 33 34  2  0
 33 35  1  0
  8 36  2  0
 32 26  1  0
 35 14  1  0
 36  4  1  0
M  END
$$$$
