
     RDKit          3D

 36 38  0  0  0  0  0  0  0  0999 V2000
  -14.3005  -34.7147  -11.4951 C   0  0  0  0  0  0  0  0  0  0  0  0
  -14.4005  -35.5872  -12.7310 C   0  0  0  0  0  0  0  0  0  0  0  0
  -15.7394  -35.2374  -13.3923 C   0  0  0  0  0  0  0  0  0  0  0  0
  -14.3695  -37.0317  -12.3696 C   0  0  0  0  0  0  0  0  0  0  0  0
  -14.6706  -37.9470  -13.3521 C   0  0  0  0  0  0  0  0  0  0  0  0
  -14.6556  -39.2842  -13.0963 C   0  0  0  0  0  0  0  0  0  0  0  0
  -14.3261  -39.7112  -11.8064 C   0  0  0  0  0  0  0  0  0  0  0  0
  -14.0206  -38.8367  -10.8002 C   0  0  0  0  0  0  0  0  0  0  0  0
  -13.6700  -39.3379   -9.4592 C   0  0  0  0  0  0  0  0  0  0  0  0
  -14.5544  -38.9748   -8.4089 N   0  0  0  0  0  0  0  0  0  0  0  0
  -15.8688  -39.4964   -8.4380 C   0  0  0  0  0  0  0  0  0  0  0  0
  -16.9657  -38.6088   -7.9748 C   0  0  1  0  0  0  0  0  0  0  0  0
  -17.4384  -37.6986   -8.9110 O   0  0  0  0  0  0  0  0  0  0  0  0
  -18.1811  -39.3358   -7.4052 C   0  0  2  0  0  0  0  0  0  0  0  0
  -19.1254  -38.3098   -6.8716 C   0  0  0  0  0  0  0  0  0  0  0  0
  -20.3402  -38.8726   -6.1678 C   0  0  2  0  0  0  0  0  0  0  0  0
  -20.0404  -39.5627   -4.8862 C   0  0  0  0  0  0  0  0  0  0  0  0
  -21.2027  -39.6303   -7.1357 C   0  0  0  0  0  0  0  0  0  0  0  0
  -22.4911  -40.0922   -6.5492 C   0  0  0  0  0  0  0  0  0  0  0  0
  -22.8447  -41.4755   -7.0807 C   0  0  0  0  0  0  0  0  0  0  0  0
  -23.1065  -42.4469   -5.9580 C   0  0  0  0  0  0  0  0  0  0  0  0
  -23.9259  -43.5881   -6.4733 C   0  0  0  0  0  0  0  0  0  0  0  0
  -23.2548  -44.3208   -7.6076 C   0  0  0  0  0  0  0  0  0  0  0  0
  -22.0333  -45.1037   -7.1844 C   0  0  0  0  0  0  0  0  0  0  0  0
  -20.9515  -44.7156   -8.0255 N   0  0  0  0  0  0  0  0  0  0  0  0
  -19.6936  -44.0784   -7.7515 C   0  0  0  0  0  0  0  0  0  0  0  0
  -19.3505  -42.9507   -7.0451 C   0  0  0  0  0  0  0  0  0  0  0  0
  -18.0160  -42.6113   -7.0115 C   0  0  0  0  0  0  0  0  0  0  0  0
  -17.0844  -43.4384   -7.6967 C   0  0  0  0  0  0  0  0  0  0  0  0
  -17.4322  -44.5625   -8.3982 C   0  0  0  0  0  0  0  0  0  0  0  0
  -16.4060  -45.3910   -9.0992 C   0  0  0  0  0  0  0  0  0  0  0  0
  -18.7216  -44.8353   -8.3967 N   0  0  0  0  0  0  0  0  0  0  0  0
  -17.2991  -41.4966   -6.3895 C   0  0  0  0  0  0  0  0  0  0  0  0
  -16.1365  -41.7265   -5.8038 O   0  0  0  0  0  0  0  0  0  0  0  0
  -17.6188  -40.1159   -6.2805 N   0  0  0  0  0  0  0  0  0  0  0  0
  -14.0476  -37.4836  -11.1028 C   0  0  0  0  0  0  0  0  0  0  0  0
  1  2  1  0
  2  3  1  0
  2  4  1  0
  4  5  2  0
  5  6  1  0
  6  7  2  0
  7  8  1  0
  8  9  1  0
  9 10  1  0
 10 11  1  0
 11 12  1  0
 12 13  1  6
 12 14  1  0
 14 15  1  1
 15 16  1  0
 16 17  1  1
 16 18  1  0
 18 19  1  0
 19 20  1  0
 20 21  1  0
 21 22  1  0
 22 23  1  0
 23 24  1  0
 24 25  1  0
 25 26  1  0
 26 27  2  0
 27 28  1  0
 28 29  2  0
 29 30  1  0
 30 31  1  0
 30 32  2  0
 28 33  1  0
 33 34  2  0
 33 35  1  0
  8 36  2  0
 32 26  1  0
 35 14  1  0
 36  4  1  0
M  END
$$$$
