
     RDKit          3D

 36 38  0  0  0  0  0  0  0  0999 V2000
  -19.2655  -34.3945  -10.5476 C   0  0  0  0  0  0  0  0  0  0  0  0
  -19.8860  -35.7164  -10.9550 C   0  0  0  0  0  0  0  0  0  0  0  0
  -20.9278  -35.3847  -12.0306 C   0  0  0  0  0  0  0  0  0  0  0  0
  -20.5419  -36.3795   -9.7938 C   0  0  0  0  0  0  0  0  0  0  0  0
  -21.8361  -36.0200   -9.4947 C   0  0  0  0  0  0  0  0  0  0  0  0
  -22.5012  -36.5891   -8.4519 C   0  0  0  0  0  0  0  0  0  0  0  0
  -21.8379  -37.5524   -7.6859 C   0  0  0  0  0  0  0  0  0  0  0  0
  -20.5524  -37.9393   -7.9472 C   0  0  0  0  0  0  0  0  0  0  0  0
  -19.9006  -38.9668   -7.1155 C   0  0  0  0  0  0  0  0  0  0  0  0
  -19.1709  -39.9633   -7.8168 N   0  0  0  0  0  0  0  0  0  0  0  0
  -17.8853  -40.3056   -7.3365 C   0  0  0  0  0  0  0  0  0  0  0  0
  -16.7487  -39.4469   -7.7569 C   0  0  1  0  0  0  0  0  0  0  0  0
  -16.1221  -38.7388   -6.7399 O   0  0  0  0  0  0  0  0  0  0  0  0
  -15.6544  -40.1696   -8.5382 C   0  0  2  0  0  0  0  0  0  0  0  0
  -14.4883  -39.2456   -8.6627 C   0  0  0  0  0  0  0  0  0  0  0  0
  -13.3516  -39.7714   -9.5108 C   0  0  2  0  0  0  0  0  0  0  0  0
  -13.6723  -39.8939  -10.9567 C   0  0  0  0  0  0  0  0  0  0  0  0
  -12.7355  -40.9815   -8.8698 C   0  0  0  0  0  0  0  0  0  0  0  0
  -11.5170  -41.4713   -9.5718 C   0  0  0  0  0  0  0  0  0  0  0  0
  -11.4835  -42.9944   -9.5659 C   0  0  0  0  0  0  0  0  0  0  0  0
  -11.3230  -43.5475  -10.9591 C   0  0  0  0  0  0  0  0  0  0  0  0
  -10.7859  -44.9418  -10.8781 C   0  0  0  0  0  0  0  0  0  0  0  0
  -11.6778  -45.8639  -10.0856 C   0  0  0  0  0  0  0  0  0  0  0  0
  -12.9886  -46.1751  -10.7705 C   0  0  0  0  0  0  0  0  0  0  0  0
  -14.0405  -45.8847   -9.8553 N   0  0  0  0  0  0  0  0  0  0  0  0
  -15.1240  -44.9423   -9.8944 C   0  0  0  0  0  0  0  0  0  0  0  0
  -15.1822  -43.5942  -10.1548 C   0  0  0  0  0  0  0  0  0  0  0  0
  -16.4182  -42.9914  -10.0762 C   0  0  0  0  0  0  0  0  0  0  0  0
  -17.5459  -43.7888   -9.7391 C   0  0  0  0  0  0  0  0  0  0  0  0
  -17.4819  -45.1329   -9.4820 C   0  0  0  0  0  0  0  0  0  0  0  0
  -18.7037  -45.9173   -9.1313 C   0  0  0  0  0  0  0  0  0  0  0  0
  -16.2743  -45.6532   -9.5700 N   0  0  0  0  0  0  0  0  0  0  0  0
  -16.8514  -41.6057  -10.2655 C   0  0  0  0  0  0  0  0  0  0  0  0
  -17.9840  -41.3676  -10.9043 O   0  0  0  0  0  0  0  0  0  0  0  0
  -16.2622  -40.3735   -9.8719 N   0  0  0  0  0  0  0  0  0  0  0  0
  -19.9111  -37.3350   -9.0181 C   0  0  0  0  0  0  0  0  0  0  0  0
  1  2  1  0
  2  3  1  0
  2  4  1  0
  4  5  2  0
  5  6  1  0
  6  7  2  0
  7  8  1  0
  8  9  1  0
  9 10  1  0
 10 11  1  0
 11 12  1  0
 12 13  1  1
 12 14  1  0
 14 15  1  6
 15 16  1  0
 16 17  1  6
 16 18  1  0
 18 19  1  0
 19 20  1  0
 20 21  1  0
 21 22  1  0
 22 23  1  0
 23 24  1  0
 24 25  1  0
 25 26  1  0
 26 27  2  0
 27 28  1  0
 28 29  2  0
 29 30  1  0
 30 31  1  0
 30 32  2  0
 28 33  1  0
 33 34  2  0
 33 35  1  0
  8 36  2  0
 32 26  1  0
 35 14  1  0
 36  4  1  0
M  END
$$$$
