
     RDKit          3D

 36 38  0  0  0  0  0  0  0  0999 V2000
  -11.6992  -34.3595  -12.0430 C   0  0  0  0  0  0  0  0  0  0  0  0
  -12.9412  -35.0565  -12.5629 C   0  0  0  0  0  0  0  0  0  0  0  0
  -14.1051  -34.5528  -11.7005 C   0  0  0  0  0  0  0  0  0  0  0  0
  -12.8151  -36.5355  -12.4400 C   0  0  0  0  0  0  0  0  0  0  0  0
  -12.5271  -37.2531  -13.5784 C   0  0  0  0  0  0  0  0  0  0  0  0
  -12.3905  -38.6073  -13.5406 C   0  0  0  0  0  0  0  0  0  0  0  0
  -12.5503  -39.2581  -12.3135 C   0  0  0  0  0  0  0  0  0  0  0  0
  -12.8371  -38.5848  -11.1582 C   0  0  0  0  0  0  0  0  0  0  0  0
  -12.9861  -39.3165   -9.8875 C   0  0  0  0  0  0  0  0  0  0  0  0
  -14.1595  -39.0315   -9.1399 N   0  0  0  0  0  0  0  0  0  0  0  0
  -15.0453  -40.0988   -8.8628 C   0  0  0  0  0  0  0  0  0  0  0  0
  -16.2987  -40.1690   -9.6566 C   0  0  1  0  0  0  0  0  0  0  0  0
  -16.4031  -41.2510  -10.5207 O   0  0  0  0  0  0  0  0  0  0  0  0
  -17.5826  -40.1303   -8.8318 C   0  0  2  0  0  0  0  0  0  0  0  0
  -17.9285  -38.6996   -8.5818 C   0  0  0  0  0  0  0  0  0  0  0  0
  -19.1226  -38.4855   -7.6784 C   0  0  2  0  0  0  0  0  0  0  0  0
  -18.9033  -38.8939   -6.2665 C   0  0  0  0  0  0  0  0  0  0  0  0
  -20.3714  -39.0092   -8.3273 C   0  0  0  0  0  0  0  0  0  0  0  0
  -21.6121  -38.7049   -7.5620 C   0  0  0  0  0  0  0  0  0  0  0  0
  -22.5763  -39.8823   -7.6343 C   0  0  0  0  0  0  0  0  0  0  0  0
  -23.0025  -40.3307   -6.2596 C   0  0  0  0  0  0  0  0  0  0  0  0
  -24.2862  -41.0925   -6.3646 C   0  0  0  0  0  0  0  0  0  0  0  0
  -24.1746  -42.3004   -7.2602 C   0  0  0  0  0  0  0  0  0  0  0  0
  -23.3139  -43.4023   -6.6865 C   0  0  0  0  0  0  0  0  0  0  0  0
  -22.3334  -43.7444   -7.6612 N   0  0  0  0  0  0  0  0  0  0  0  0
  -20.8988  -43.6693   -7.6579 C   0  0  0  0  0  0  0  0  0  0  0  0
  -20.0155  -42.6651   -7.3418 C   0  0  0  0  0  0  0  0  0  0  0  0
  -18.6733  -42.9410   -7.4821 C   0  0  0  0  0  0  0  0  0  0  0  0
  -18.2860  -44.2316   -7.9355 C   0  0  0  0  0  0  0  0  0  0  0  0
  -19.1713  -45.2294   -8.2477 C   0  0  0  0  0  0  0  0  0  0  0  0
  -18.7022  -46.5662   -8.7208 C   0  0  0  0  0  0  0  0  0  0  0  0
  -20.4401  -44.9066   -8.0964 N   0  0  0  0  0  0  0  0  0  0  0  0
  -17.4737  -42.1311   -7.2621 C   0  0  0  0  0  0  0  0  0  0  0  0
  -16.4165  -42.6881   -6.6967 O   0  0  0  0  0  0  0  0  0  0  0  0
  -17.1906  -40.7695   -7.5561 N   0  0  0  0  0  0  0  0  0  0  0  0
  -12.9680  -37.2066  -11.2404 C   0  0  0  0  0  0  0  0  0  0  0  0
  1  2  1  0
  2  3  1  0
  2  4  1  0
  4  5  2  0
  5  6  1  0
  6  7  2  0
  7  8  1  0
  8  9  1  0
  9 10  1  0
 10 11  1  0
 11 12  1  0
 12 13  1  1
 12 14  1  0
 14 15  1  1
 15 16  1  0
 16 17  1  1
 16 18  1  0
 18 19  1  0
 19 20  1  0
 20 21  1  0
 21 22  1  0
 22 23  1  0
 23 24  1  0
 24 25  1  0
 25 26  1  0
 26 27  2  0
 27 28  1  0
 28 29  2  0
 29 30  1  0
 30 31  1  0
 30 32  2  0
 28 33  1  0
 33 34  2  0
 33 35  1  0
  8 36  2  0
 32 26  1  0
 35 14  1  0
 36  4  1  0
M  END
$$$$
