
     RDKit          3D

 36 38  0  0  0  0  0  0  0  0999 V2000
  -26.6499  -42.8431   -8.0116 C   0  0  0  0  0  0  0  0  0  0  0  0
  -25.5198  -43.3004   -8.9130 C   0  0  0  0  0  0  0  0  0  0  0  0
  -24.8814  -44.5085   -8.2165 C   0  0  0  0  0  0  0  0  0  0  0  0
  -24.5100  -42.2206   -9.0938 C   0  0  0  0  0  0  0  0  0  0  0  0
  -24.9279  -41.0373   -9.6586 C   0  0  0  0  0  0  0  0  0  0  0  0
  -24.0620  -40.0039   -9.8483 C   0  0  0  0  0  0  0  0  0  0  0  0
  -22.7307  -40.1707   -9.4552 C   0  0  0  0  0  0  0  0  0  0  0  0
  -22.2725  -41.3290   -8.8905 C   0  0  0  0  0  0  0  0  0  0  0  0
  -20.8610  -41.4514   -8.4839 C   0  0  0  0  0  0  0  0  0  0  0  0
  -19.9199  -41.5886   -9.5387 N   0  0  0  0  0  0  0  0  0  0  0  0
  -19.0996  -40.4777   -9.8447 C   0  0  0  0  0  0  0  0  0  0  0  0
  -18.4078  -40.4817  -11.1590 C   0  0  1  0  0  0  0  0  0  0  0  0
  -19.1826  -40.1022  -12.2472 O   0  0  0  0  0  0  0  0  0  0  0  0
  -17.1271  -39.6528  -11.2116 C   0  0  2  0  0  0  0  0  0  0  0  0
  -17.4443  -38.3534  -11.8749 C   0  0  0  0  0  0  0  0  0  0  0  0
  -16.2512  -37.4532  -12.1070 C   0  0  2  0  0  0  0  0  0  0  0  0
  -15.2833  -37.9660  -13.1114 C   0  0  0  0  0  0  0  0  0  0  0  0
  -15.6658  -37.0105  -10.7970 C   0  0  0  0  0  0  0  0  0  0  0  0
  -14.5763  -36.0057  -10.9413 C   0  0  0  0  0  0  0  0  0  0  0  0
  -13.4797  -36.2686   -9.9169 C   0  0  0  0  0  0  0  0  0  0  0  0
  -12.1287  -36.3904  -10.5748 C   0  0  0  0  0  0  0  0  0  0  0  0
  -11.0601  -36.1289   -9.5604 C   0  0  0  0  0  0  0  0  0  0  0  0
  -11.1222  -37.0794   -8.3915 C   0  0  0  0  0  0  0  0  0  0  0  0
  -10.7443  -38.4994   -8.7446 C   0  0  0  0  0  0  0  0  0  0  0  0
  -11.7935  -39.3547   -8.3019 N   0  0  0  0  0  0  0  0  0  0  0  0
  -12.6890  -40.2307   -9.0049 C   0  0  0  0  0  0  0  0  0  0  0  0
  -13.4980  -40.0571  -10.1022 C   0  0  0  0  0  0  0  0  0  0  0  0
  -14.2619  -41.1332  -10.4969 C   0  0  0  0  0  0  0  0  0  0  0  0
  -14.1669  -42.3445   -9.7587 C   0  0  0  0  0  0  0  0  0  0  0  0
  -13.3573  -42.5122   -8.6664 C   0  0  0  0  0  0  0  0  0  0  0  0
  -13.3018  -43.8109   -7.9308 C   0  0  0  0  0  0  0  0  0  0  0  0
  -12.6528  -41.4488   -8.3350 N   0  0  0  0  0  0  0  0  0  0  0  0
  -15.2294  -41.3084  -11.5816 C   0  0  0  0  0  0  0  0  0  0  0  0
  -15.2357  -42.4425  -12.2607 O   0  0  0  0  0  0  0  0  0  0  0  0
  -16.2397  -40.4471  -12.0898 N   0  0  0  0  0  0  0  0  0  0  0  0
  -23.1869  -42.3568   -8.7151 C   0  0  0  0  0  0  0  0  0  0  0  0
  1  2  1  0
  2  3  1  0
  2  4  1  0
  4  5  2  0
  5  6  1  0
  6  7  2  0
  7  8  1  0
  8  9  1  0
  9 10  1  0
 10 11  1  0
 11 12  1  0
 12 13  1  6
 12 14  1  0
 14 15  1  6
 15 16  1  0
 16 17  1  1
 16 18  1  0
 18 19  1  0
 19 20  1  0
 20 21  1  0
 21 22  1  0
 22 23  1  0
 23 24  1  0
 24 25  1  0
 25 26  1  0
 26 27  2  0
 27 28  1  0
 28 29  2  0
 29 30  1  0
 30 31  1  0
 30 32  2  0
 28 33  1  0
 33 34  2  0
 33 35  1  0
  8 36  2  0
 32 26  1  0
 35 14  1  0
 36  4  1  0
M  END
$$$$
