
     RDKit          3D

 36 38  0  0  0  0  0  0  0  0999 V2000
  -22.2422  -42.9694   -6.2623 C   0  0  0  0  0  0  0  0  0  0  0  0
  -23.1257  -41.7374   -6.2705 C   0  0  0  0  0  0  0  0  0  0  0  0
  -24.3930  -42.1269   -7.0415 C   0  0  0  0  0  0  0  0  0  0  0  0
  -22.4460  -40.5966   -6.9449 C   0  0  0  0  0  0  0  0  0  0  0  0
  -22.7719  -40.3385   -8.2568 C   0  0  0  0  0  0  0  0  0  0  0  0
  -22.1958  -39.3080   -8.9351 C   0  0  0  0  0  0  0  0  0  0  0  0
  -21.2601  -38.5124   -8.2671 C   0  0  0  0  0  0  0  0  0  0  0  0
  -20.9066  -38.7331   -6.9646 C   0  0  0  0  0  0  0  0  0  0  0  0
  -19.9218  -37.8591   -6.3021 C   0  0  0  0  0  0  0  0  0  0  0  0
  -18.6824  -37.6962   -6.9763 N   0  0  0  0  0  0  0  0  0  0  0  0
  -17.8409  -38.8262   -7.1001 C   0  0  0  0  0  0  0  0  0  0  0  0
  -16.3748  -38.5886   -7.1003 C   0  0  1  0  0  0  0  0  0  0  0  0
  -15.6161  -39.5121   -6.3933 O   0  0  0  0  0  0  0  0  0  0  0  0
  -15.7464  -38.4609   -8.4856 C   0  0  2  0  0  0  0  0  0  0  0  0
  -15.5676  -37.0082   -8.7799 C   0  0  0  0  0  0  0  0  0  0  0  0
  -15.0542  -36.7023  -10.1695 C   0  0  2  0  0  0  0  0  0  0  0  0
  -16.0140  -37.0164  -11.2597 C   0  0  0  0  0  0  0  0  0  0  0  0
  -13.6628  -37.2391  -10.3442 C   0  0  0  0  0  0  0  0  0  0  0  0
  -13.0336  -36.8518  -11.6372 C   0  0  0  0  0  0  0  0  0  0  0  0
  -12.2062  -38.0074  -12.1860 C   0  0  0  0  0  0  0  0  0  0  0  0
  -12.6050  -38.3481  -13.5994 C   0  0  0  0  0  0  0  0  0  0  0  0
  -11.4846  -39.0836  -14.2649 C   0  0  0  0  0  0  0  0  0  0  0  0
  -11.1117  -40.3534  -13.5423 C   0  0  0  0  0  0  0  0  0  0  0  0
  -12.1649  -41.4334  -13.6327 C   0  0  0  0  0  0  0  0  0  0  0  0
  -12.4625  -41.8667  -12.3090 N   0  0  0  0  0  0  0  0  0  0  0  0
  -13.6661  -41.8268  -11.5258 C   0  0  0  0  0  0  0  0  0  0  0  0
  -14.5615  -40.8250  -11.2372 C   0  0  0  0  0  0  0  0  0  0  0  0
  -15.6155  -41.1429  -10.4094 C   0  0  0  0  0  0  0  0  0  0  0  0
  -15.7160  -42.4712   -9.9124 C   0  0  0  0  0  0  0  0  0  0  0  0
  -14.8209  -43.4662  -10.2049 C   0  0  0  0  0  0  0  0  0  0  0  0
  -14.9801  -44.8439   -9.6503 C   0  0  0  0  0  0  0  0  0  0  0  0
  -13.8337  -43.1026  -10.9986 N   0  0  0  0  0  0  0  0  0  0  0  0
  -16.7272  -40.3494   -9.8823 C   0  0  0  0  0  0  0  0  0  0  0  0
  -17.9313  -40.8914   -9.8197 O   0  0  0  0  0  0  0  0  0  0  0  0
  -16.7809  -39.0189   -9.3846 N   0  0  0  0  0  0  0  0  0  0  0  0
  -21.5166  -39.7928   -6.3103 C   0  0  0  0  0  0  0  0  0  0  0  0
  1  2  1  0
  2  3  1  0
  2  4  1  0
  4  5  2  0
  5  6  1  0
  6  7  2  0
  7  8  1  0
  8  9  1  0
  9 10  1  0
 10 11  1  0
 11 12  1  0
 12 13  1  6
 12 14  1  0
 14 15  1  6
 15 16  1  0
 16 17  1  6
 16 18  1  0
 18 19  1  0
 19 20  1  0
 20 21  1  0
 21 22  1  0
 22 23  1  0
 23 24  1  0
 24 25  1  0
 25 26  1  0
 26 27  2  0
 27 28  1  0
 28 29  2  0
 29 30  1  0
 30 31  1  0
 30 32  2  0
 28 33  1  0
 33 34  2  0
 33 35  1  0
  8 36  2  0
 32 26  1  0
 35 14  1  0
 36  4  1  0
M  END
$$$$
