
     RDKit          3D

 36 38  0  0  0  0  0  0  0  0999 V2000
  -12.3346  -34.6387  -12.3739 C   0  0  0  0  0  0  0  0  0  0  0  0
  -13.6491  -35.1908  -12.8896 C   0  0  0  0  0  0  0  0  0  0  0  0
  -14.7387  -34.6257  -11.9700 C   0  0  0  0  0  0  0  0  0  0  0  0
  -13.6593  -36.6794  -12.8414 C   0  0  0  0  0  0  0  0  0  0  0  0
  -14.0360  -37.3570  -13.9784 C   0  0  0  0  0  0  0  0  0  0  0  0
  -14.0625  -38.7179  -14.0100 C   0  0  0  0  0  0  0  0  0  0  0  0
  -13.6969  -39.4174  -12.8560 C   0  0  0  0  0  0  0  0  0  0  0  0
  -13.3164  -38.7849  -11.7047 C   0  0  0  0  0  0  0  0  0  0  0  0
  -12.9306  -39.5684  -10.5174 C   0  0  0  0  0  0  0  0  0  0  0  0
  -13.5574  -39.1986   -9.2978 N   0  0  0  0  0  0  0  0  0  0  0  0
  -14.9308  -39.4977   -9.1403 C   0  0  0  0  0  0  0  0  0  0  0  0
  -15.6177  -38.9421   -7.9464 C   0  0  1  0  0  0  0  0  0  0  0  0
  -15.6452  -37.5565   -7.8592 O   0  0  0  0  0  0  0  0  0  0  0  0
  -17.0498  -39.4310   -7.7456 C   0  0  2  0  0  0  0  0  0  0  0  0
  -17.8350  -38.3208   -7.1293 C   0  0  0  0  0  0  0  0  0  0  0  0
  -19.2574  -38.6800   -6.7609 C   0  0  2  0  0  0  0  0  0  0  0  0
  -19.3734  -39.6571   -5.6471 C   0  0  0  0  0  0  0  0  0  0  0  0
  -20.0555  -38.9918   -7.9940 C   0  0  0  0  0  0  0  0  0  0  0  0
  -21.5033  -39.2140   -7.7254 C   0  0  0  0  0  0  0  0  0  0  0  0
  -22.0367  -40.3324   -8.6118 C   0  0  0  0  0  0  0  0  0  0  0  0
  -22.7193  -41.4024   -7.7982 C   0  0  0  0  0  0  0  0  0  0  0  0
  -23.6487  -42.1757   -8.6800 C   0  0  0  0  0  0  0  0  0  0  0  0
  -22.9425  -42.8227   -9.8446 C   0  0  0  0  0  0  0  0  0  0  0  0
  -22.0281  -43.9574   -9.4440 C   0  0  0  0  0  0  0  0  0  0  0  0
  -20.7437  -43.7034  -10.0046 N   0  0  0  0  0  0  0  0  0  0  0  0
  -19.4568  -43.4730   -9.4093 C   0  0  0  0  0  0  0  0  0  0  0  0
  -19.0234  -42.6278   -8.4162 C   0  0  0  0  0  0  0  0  0  0  0  0
  -17.6805  -42.6528   -8.1108 C   0  0  0  0  0  0  0  0  0  0  0  0
  -16.8343  -43.5420   -8.8280 C   0  0  0  0  0  0  0  0  0  0  0  0
  -17.2724  -44.3836   -9.8163 C   0  0  0  0  0  0  0  0  0  0  0  0
  -16.3329  -45.2952  -10.5354 C   0  0  0  0  0  0  0  0  0  0  0  0
  -18.5646  -44.3137  -10.0658 N   0  0  0  0  0  0  0  0  0  0  0  0
  -16.8759  -41.8990   -7.1476 C   0  0  0  0  0  0  0  0  0  0  0  0
  -15.9298  -42.5259   -6.4698 O   0  0  0  0  0  0  0  0  0  0  0  0
  -16.9034  -40.5300   -6.7657 N   0  0  0  0  0  0  0  0  0  0  0  0
  -13.3033  -37.3982  -11.7148 C   0  0  0  0  0  0  0  0  0  0  0  0
  1  2  1  0
  2  3  1  0
  2  4  1  0
  4  5  2  0
  5  6  1  0
  6  7  2  0
  7  8  1  0
  8  9  1  0
  9 10  1  0
 10 11  1  0
 11 12  1  0
 12 13  1  6
 12 14  1  0
 14 15  1  1
 15 16  1  0
 16 17  1  1
 16 18  1  0
 18 19  1  0
 19 20  1  0
 20 21  1  0
 21 22  1  0
 22 23  1  0
 23 24  1  0
 24 25  1  0
 25 26  1  0
 26 27  2  0
 27 28  1  0
 28 29  2  0
 29 30  1  0
 30 31  1  0
 30 32  2  0
 28 33  1  0
 33 34  2  0
 33 35  1  0
  8 36  2  0
 32 26  1  0
 35 14  1  0
 36  4  1  0
M  END
$$$$
