
     RDKit          3D

 36 38  0  0  0  0  0  0  0  0999 V2000
  -23.3090  -38.4205   -8.3269 C   0  0  0  0  0  0  0  0  0  0  0  0
  -23.9181  -39.3443   -7.2905 C   0  0  0  0  0  0  0  0  0  0  0  0
  -24.7862  -38.4588   -6.3880 C   0  0  0  0  0  0  0  0  0  0  0  0
  -22.8601  -40.0154   -6.4849 C   0  0  0  0  0  0  0  0  0  0  0  0
  -23.0480  -40.1058   -5.1246 C   0  0  0  0  0  0  0  0  0  0  0  0
  -22.1265  -40.7116   -4.3261 C   0  0  0  0  0  0  0  0  0  0  0  0
  -20.9780  -41.2432   -4.9202 C   0  0  0  0  0  0  0  0  0  0  0  0
  -20.7508  -41.1755   -6.2671 C   0  0  0  0  0  0  0  0  0  0  0  0
  -19.5281  -41.7604   -6.8461 C   0  0  0  0  0  0  0  0  0  0  0  0
  -18.6258  -40.8441   -7.4489 N   0  0  0  0  0  0  0  0  0  0  0  0
  -17.3202  -40.7488   -6.9131 C   0  0  0  0  0  0  0  0  0  0  0  0
  -16.6198  -39.4463   -7.0499 C   0  0  1  0  0  0  0  0  0  0  0  0
  -15.4238  -39.3309   -6.3537 O   0  0  0  0  0  0  0  0  0  0  0  0
  -16.3431  -39.0155   -8.4879 C   0  0  2  0  0  0  0  0  0  0  0  0
  -16.7683  -37.5918   -8.6339 C   0  0  0  0  0  0  0  0  0  0  0  0
  -16.6628  -37.0404  -10.0385 C   0  0  2  0  0  0  0  0  0  0  0  0
  -17.6186  -37.6407  -11.0053 C   0  0  0  0  0  0  0  0  0  0  0  0
  -15.2274  -36.9935  -10.4769 C   0  0  0  0  0  0  0  0  0  0  0  0
  -15.0290  -36.3277  -11.7940 C   0  0  0  0  0  0  0  0  0  0  0  0
  -13.9473  -37.0478  -12.5893 C   0  0  0  0  0  0  0  0  0  0  0  0
  -14.4398  -37.4409  -13.9588 C   0  0  0  0  0  0  0  0  0  0  0  0
  -13.2666  -37.6553  -14.8627 C   0  0  0  0  0  0  0  0  0  0  0  0
  -12.3285  -38.7214  -14.3557 C   0  0  0  0  0  0  0  0  0  0  0  0
  -12.9074  -40.1161  -14.4159 C   0  0  0  0  0  0  0  0  0  0  0  0
  -12.7809  -40.6989  -13.1226 N   0  0  0  0  0  0  0  0  0  0  0  0
  -13.7524  -41.1640  -12.1720 C   0  0  0  0  0  0  0  0  0  0  0  0
  -14.8863  -40.5981  -11.6403 C   0  0  0  0  0  0  0  0  0  0  0  0
  -15.5814  -41.3383  -10.7096 C   0  0  0  0  0  0  0  0  0  0  0  0
  -15.0942  -42.6278  -10.3616 C   0  0  0  0  0  0  0  0  0  0  0  0
  -13.9638  -43.1874  -10.8962 C   0  0  0  0  0  0  0  0  0  0  0  0
  -13.5014  -44.5479  -10.4888 C   0  0  0  0  0  0  0  0  0  0  0  0
  -13.3402  -42.4324  -11.7783 N   0  0  0  0  0  0  0  0  0  0  0  0
  -16.7929  -41.0597   -9.9362 C   0  0  0  0  0  0  0  0  0  0  0  0
  -17.6801  -42.0240   -9.7614 O   0  0  0  0  0  0  0  0  0  0  0  0
  -17.2426  -39.8793   -9.2844 N   0  0  0  0  0  0  0  0  0  0  0  0
  -21.7140  -40.5501   -7.0445 C   0  0  0  0  0  0  0  0  0  0  0  0
  1  2  1  0
  2  3  1  0
  2  4  1  0
  4  5  2  0
  5  6  1  0
  6  7  2  0
  7  8  1  0
  8  9  1  0
  9 10  1  0
 10 11  1  0
 11 12  1  0
 12 13  1  1
 12 14  1  0
 14 15  1  1
 15 16  1  0
 16 17  1  6
 16 18  1  0
 18 19  1  0
 19 20  1  0
 20 21  1  0
 21 22  1  0
 22 23  1  0
 23 24  1  0
 24 25  1  0
 25 26  1  0
 26 27  2  0
 27 28  1  0
 28 29  2  0
 29 30  1  0
 30 31  1  0
 30 32  2  0
 28 33  1  0
 33 34  2  0
 33 35  1  0
  8 36  2  0
 32 26  1  0
 35 14  1  0
 36  4  1  0
M  END
$$$$
