
     RDKit          3D

 36 37  0  0  0  0  0  0  0  0999 V2000
  -23.7896  -42.5116   -7.1272 C   0  0  0  0  0  0  0  0  0  0  0  0
  -23.4547  -41.0405   -7.0754 C   0  0  0  0  0  0  0  0  0  0  0  0
  -24.0635  -40.3181   -8.2668 C   0  0  0  0  0  0  0  0  0  0  0  0
  -21.9986  -40.7994   -7.0473 C   0  0  0  0  0  0  0  0  0  0  0  0
  -21.5036  -39.5083   -7.2091 C   0  0  0  0  0  0  0  0  0  0  0  0
  -20.1436  -39.2942   -7.1828 C   0  0  0  0  0  0  0  0  0  0  0  0
  -19.6073  -37.9002   -7.3596 C   0  0  0  0  0  0  0  0  0  0  0  0
  -18.1934  -37.9948   -7.3427 N   0  0  0  0  0  0  0  0  0  0  0  0
  -17.4764  -37.6526   -8.5010 C   0  0  0  0  0  0  0  0  0  0  0  0
  -15.9961  -37.5077   -8.2656 C   0  0  1  0  0  0  0  0  0  0  0  0
  -15.7427  -37.6245   -6.9077 O   0  0  0  0  0  0  0  0  0  0  0  0
  -15.2291  -38.6125   -9.0172 C   0  0  2  0  0  0  0  0  0  0  0  0
  -13.7893  -38.4357   -8.8288 C   0  0  0  0  0  0  0  0  0  0  0  0
  -13.0071  -37.4059   -9.4884 C   0  0  2  0  0  0  0  0  0  0  0  0
  -13.5205  -36.7181  -10.7062 C   0  0  0  0  0  0  0  0  0  0  0  0
  -11.5632  -37.7451   -9.7507 C   0  0  0  0  0  0  0  0  0  0  0  0
  -11.2406  -39.0263  -10.3786 C   0  0  0  0  0  0  0  0  0  0  0  0
  -11.3267  -39.0628  -11.9024 C   0  0  0  0  0  0  0  0  0  0  0  0
  -12.5388  -39.8666  -12.3660 C   0  0  0  0  0  0  0  0  0  0  0  0
  -12.2050  -41.1523  -13.0284 C   0  0  0  0  0  0  0  0  0  0  0  0
  -12.9730  -42.3313  -12.4760 C   0  0  2  0  0  0  0  0  0  0  0  0
  -12.0541  -43.5468  -12.6823 C   0  0  0  0  0  0  0  0  0  0  0  0
  -14.2482  -42.6350  -13.1750 C   0  0  0  0  0  0  0  0  0  0  0  0
  -15.4217  -41.7883  -12.8388 C   0  0  0  0  0  0  0  0  0  0  0  0
  -16.5589  -42.5510  -12.2299 C   0  0  0  0  0  0  0  0  0  0  0  0
  -16.8160  -43.6653  -12.7532 O   0  0  0  0  0  0  0  0  0  0  0  0
  -17.3298  -42.1120  -11.1468 N   0  0  0  0  0  0  0  0  0  0  0  0
  -18.7139  -42.5350  -11.0214 C   0  0  0  0  0  0  0  0  0  0  0  0
  -16.8059  -41.2210  -10.0983 C   0  0  1  0  0  0  0  0  0  0  0  0
  -15.4922  -41.7859   -9.6756 C   0  0  0  0  0  0  0  0  0  0  0  0
  -16.7652  -39.8495  -10.6257 C   0  0  0  0  0  0  0  0  0  0  0  0
  -17.7042  -39.5069  -11.4339 O   0  0  0  0  0  0  0  0  0  0  0  0
  -15.7599  -38.8979  -10.2957 N   0  0  0  0  0  0  0  0  0  0  0  0
  -19.2563  -40.3263   -7.0000 C   0  0  0  0  0  0  0  0  0  0  0  0
  -19.7527  -41.6236   -6.8372 C   0  0  0  0  0  0  0  0  0  0  0  0
  -21.1066  -41.8202   -6.8657 C   0  0  0  0  0  0  0  0  0  0  0  0
  1  2  1  0
  2  3  1  0
  2  4  1  0
  4  5  2  0
  5  6  1  0
  6  7  1  0
  7  8  1  0
  8  9  1  0
  9 10  1  0
 10 11  1  1
 10 12  1  0
 12 13  1  6
 13 14  1  0
 14 15  1  6
 14 16  1  0
 16 17  1  0
 17 18  1  0
 18 19  1  0
 19 20  1  0
 20 21  1  0
 21 22  1  6
 21 23  1  0
 23 24  1  0
 24 25  1  0
 25 26  2  0
 25 27  1  0
 27 28  1  0
 27 29  1  0
 29 30  1  6
 29 31  1  0
 31 32  2  0
 31 33  1  0
  6 34  2  0
 34 35  1  0
 35 36  2  0
 33 12  1  0
 36  4  1  0
M  END
$$$$
