
     RDKit          3D

 36 37  0  0  0  0  0  0  0  0999 V2000
  -14.8347  -35.2101  -12.2558 C   0  0  0  0  0  0  0  0  0  0  0  0
  -13.8764  -35.7087  -11.2013 C   0  0  0  0  0  0  0  0  0  0  0  0
  -12.6845  -34.7717  -11.0856 C   0  0  0  0  0  0  0  0  0  0  0  0
  -13.3992  -37.0771  -11.4817 C   0  0  0  0  0  0  0  0  0  0  0  0
  -13.6478  -38.1011  -10.5720 C   0  0  0  0  0  0  0  0  0  0  0  0
  -13.1970  -39.3739  -10.8422 C   0  0  0  0  0  0  0  0  0  0  0  0
  -13.4631  -40.4808   -9.8592 C   0  0  0  0  0  0  0  0  0  0  0  0
  -14.6615  -40.1513   -9.1784 N   0  0  0  0  0  0  0  0  0  0  0  0
  -15.8855  -40.5940   -9.7063 C   0  0  0  0  0  0  0  0  0  0  0  0
  -16.9406  -39.5201   -9.7483 C   0  0  1  0  0  0  0  0  0  0  0  0
  -17.1888  -39.1846  -11.0702 O   0  0  0  0  0  0  0  0  0  0  0  0
  -18.2440  -40.0322   -9.1059 C   0  0  2  0  0  0  0  0  0  0  0  0
  -19.3973  -39.4062   -9.7525 C   0  0  0  0  0  0  0  0  0  0  0  0
  -19.7986  -38.0283   -9.5338 C   0  0  2  0  0  0  0  0  0  0  0  0
  -19.3239  -37.2740   -8.3400 C   0  0  0  0  0  0  0  0  0  0  0  0
  -21.2704  -37.7424   -9.6780 C   0  0  0  0  0  0  0  0  0  0  0  0
  -22.2293  -38.6051   -8.9880 C   0  0  0  0  0  0  0  0  0  0  0  0
  -22.5017  -38.2632   -7.5252 C   0  0  0  0  0  0  0  0  0  0  0  0
  -21.8722  -39.2949   -6.5926 C   0  0  0  0  0  0  0  0  0  0  0  0
  -22.8504  -40.1484   -5.8729 C   0  0  0  0  0  0  0  0  0  0  0  0
  -22.5476  -41.6260   -5.9720 C   0  0  2  0  0  0  0  0  0  0  0  0
  -23.9122  -42.3275   -5.8712 C   0  0  0  0  0  0  0  0  0  0  0  0
  -21.7042  -42.1705   -4.8769 C   0  0  0  0  0  0  0  0  0  0  0  0
  -20.2417  -41.9249   -4.9642 C   0  0  0  0  0  0  0  0  0  0  0  0
  -19.4265  -43.1781   -5.0678 C   0  0  0  0  0  0  0  0  0  0  0  0
  -19.7818  -44.1279   -4.3241 O   0  0  0  0  0  0  0  0  0  0  0  0
  -18.3266  -43.3511   -5.9164 N   0  0  0  0  0  0  0  0  0  0  0  0
  -17.2571  -44.2607   -5.5433 C   0  0  0  0  0  0  0  0  0  0  0  0
  -18.1852  -42.6447   -7.2005 C   0  0  1  0  0  0  0  0  0  0  0  0
  -19.4873  -42.7898   -7.9126 C   0  0  0  0  0  0  0  0  0  0  0  0
  -17.7610  -41.2632   -6.9315 C   0  0  0  0  0  0  0  0  0  0  0  0
  -16.9666  -41.0797   -5.9378 O   0  0  0  0  0  0  0  0  0  0  0  0
  -18.1754  -40.1383   -7.6983 N   0  0  0  0  0  0  0  0  0  0  0  0
  -12.5044  -39.6627  -11.9923 C   0  0  0  0  0  0  0  0  0  0  0  0
  -12.2543  -38.6346  -12.9069 C   0  0  0  0  0  0  0  0  0  0  0  0
  -12.7086  -37.3752  -12.6241 C   0  0  0  0  0  0  0  0  0  0  0  0
  1  2  1  0
  2  3  1  0
  2  4  1  0
  4  5  2  0
  5  6  1  0
  6  7  1  0
  7  8  1  0
  8  9  1  0
  9 10  1  0
 10 11  1  6
 10 12  1  0
 12 13  1  1
 13 14  1  0
 14 15  1  1
 14 16  1  0
 16 17  1  0
 17 18  1  0
 18 19  1  0
 19 20  1  0
 20 21  1  0
 21 22  1  1
 21 23  1  0
 23 24  1  0
 24 25  1  0
 25 26  2  0
 25 27  1  0
 27 28  1  0
 27 29  1  0
 29 30  1  1
 29 31  1  0
 31 32  2  0
 31 33  1  0
  6 34  2  0
 34 35  1  0
 35 36  2  0
 33 12  1  0
 36  4  1  0
M  END
$$$$
