
     RDKit          3D

 36 37  0  0  0  0  0  0  0  0999 V2000
  -12.1027  -35.8963  -11.3031 C   0  0  0  0  0  0  0  0  0  0  0  0
  -13.3274  -36.4246  -12.0100 C   0  0  0  0  0  0  0  0  0  0  0  0
  -14.5779  -35.7376  -11.4845 C   0  0  0  0  0  0  0  0  0  0  0  0
  -13.4716  -37.8862  -11.8616 C   0  0  0  0  0  0  0  0  0  0  0  0
  -13.2627  -38.4839  -10.6217 C   0  0  0  0  0  0  0  0  0  0  0  0
  -13.3982  -39.8482  -10.4942 C   0  0  0  0  0  0  0  0  0  0  0  0
  -13.1706  -40.4956   -9.1557 C   0  0  0  0  0  0  0  0  0  0  0  0
  -14.1474  -39.9738   -8.2715 N   0  0  0  0  0  0  0  0  0  0  0  0
  -15.4384  -40.5271   -8.2835 C   0  0  0  0  0  0  0  0  0  0  0  0
  -16.4857  -39.6110   -7.7074 C   0  0  1  0  0  0  0  0  0  0  0  0
  -16.5127  -38.4379   -8.4456 O   0  0  0  0  0  0  0  0  0  0  0  0
  -17.8716  -40.2807   -7.7763 C   0  0  2  0  0  0  0  0  0  0  0  0
  -18.9018  -39.2700   -8.0154 C   0  0  0  0  0  0  0  0  0  0  0  0
  -19.3716  -38.3386   -7.0058 C   0  0  2  0  0  0  0  0  0  0  0  0
  -19.1442  -38.6023   -5.5573 C   0  0  0  0  0  0  0  0  0  0  0  0
  -20.7985  -37.8785   -7.1504 C   0  0  0  0  0  0  0  0  0  0  0  0
  -21.8457  -38.8776   -7.3627 C   0  0  0  0  0  0  0  0  0  0  0  0
  -22.3914  -39.5495   -6.1051 C   0  0  0  0  0  0  0  0  0  0  0  0
  -21.9181  -40.9973   -6.0053 C   0  0  0  0  0  0  0  0  0  0  0  0
  -22.9899  -42.0070   -6.1928 C   0  0  0  0  0  0  0  0  0  0  0  0
  -22.6363  -43.0812   -7.1957 C   0  0  2  0  0  0  0  0  0  0  0  0
  -23.9777  -43.5326   -7.7968 C   0  0  0  0  0  0  0  0  0  0  0  0
  -21.9953  -44.2921   -6.6214 C   0  0  0  0  0  0  0  0  0  0  0  0
  -20.5484  -44.2015   -6.2968 C   0  0  0  0  0  0  0  0  0  0  0  0
  -19.6963  -45.1572   -7.0754 C   0  0  0  0  0  0  0  0  0  0  0  0
  -20.1580  -46.3189   -7.2125 O   0  0  0  0  0  0  0  0  0  0  0  0
  -18.4548  -44.8453   -7.6425 N   0  0  0  0  0  0  0  0  0  0  0  0
  -17.4494  -45.8813   -7.8046 C   0  0  0  0  0  0  0  0  0  0  0  0
  -18.0977  -43.4909   -8.0960 C   0  0  1  0  0  0  0  0  0  0  0  0
  -19.2422  -43.0001   -8.9162 C   0  0  0  0  0  0  0  0  0  0  0  0
  -17.7657  -42.6747   -6.9194 C   0  0  0  0  0  0  0  0  0  0  0  0
  -17.1728  -43.2684   -5.9457 O   0  0  0  0  0  0  0  0  0  0  0  0
  -18.0606  -41.2874   -6.8025 N   0  0  0  0  0  0  0  0  0  0  0  0
  -13.7362  -40.6408  -11.5635 C   0  0  0  0  0  0  0  0  0  0  0  0
  -13.9464  -40.0411  -12.8094 C   0  0  0  0  0  0  0  0  0  0  0  0
  -13.8080  -38.6843  -12.9202 C   0  0  0  0  0  0  0  0  0  0  0  0
  1  2  1  0
  2  3  1  0
  2  4  1  0
  4  5  2  0
  5  6  1  0
  6  7  1  0
  7  8  1  0
  8  9  1  0
  9 10  1  0
 10 11  1  6
 10 12  1  0
 12 13  1  1
 13 14  1  0
 14 15  1  1
 14 16  1  0
 16 17  1  0
 17 18  1  0
 18 19  1  0
 19 20  1  0
 20 21  1  0
 21 22  1  1
 21 23  1  0
 23 24  1  0
 24 25  1  0
 25 26  2  0
 25 27  1  0
 27 28  1  0
 27 29  1  0
 29 30  1  1
 29 31  1  0
 31 32  2  0
 31 33  1  0
  6 34  2  0
 34 35  1  0
 35 36  2  0
 33 12  1  0
 36  4  1  0
M  END
$$$$
