
     RDKit          3D

 36 37  0  0  0  0  0  0  0  0999 V2000
  -12.8065  -38.0340  -15.1390 C   0  0  0  0  0  0  0  0  0  0  0  0
  -13.4075  -36.7917  -14.5273 C   0  0  0  0  0  0  0  0  0  0  0  0
  -12.3603  -35.6940  -14.4247 C   0  0  0  0  0  0  0  0  0  0  0  0
  -13.9820  -37.0478  -13.1918 C   0  0  0  0  0  0  0  0  0  0  0  0
  -13.5160  -38.1132  -12.4264 C   0  0  0  0  0  0  0  0  0  0  0  0
  -14.0596  -38.3446  -11.1826 C   0  0  0  0  0  0  0  0  0  0  0  0
  -13.5586  -39.4965  -10.3553 C   0  0  0  0  0  0  0  0  0  0  0  0
  -14.2238  -39.4296   -9.1057 N   0  0  0  0  0  0  0  0  0  0  0  0
  -15.4974  -40.0091   -8.9831 C   0  0  0  0  0  0  0  0  0  0  0  0
  -16.4026  -39.2659   -8.0364 C   0  0  1  0  0  0  0  0  0  0  0  0
  -16.5415  -37.9595   -8.4789 O   0  0  0  0  0  0  0  0  0  0  0  0
  -17.7906  -39.9336   -7.9961 C   0  0  2  0  0  0  0  0  0  0  0  0
  -18.8363  -38.9145   -8.0857 C   0  0  0  0  0  0  0  0  0  0  0  0
  -19.1998  -38.0298   -6.9936 C   0  0  2  0  0  0  0  0  0  0  0  0
  -18.8297  -38.3577   -5.5883 C   0  0  0  0  0  0  0  0  0  0  0  0
  -20.6326  -37.5655   -6.9742 C   0  0  0  0  0  0  0  0  0  0  0  0
  -21.6989  -38.5555   -7.1251 C   0  0  0  0  0  0  0  0  0  0  0  0
  -22.1183  -39.2836   -5.8504 C   0  0  0  0  0  0  0  0  0  0  0  0
  -21.6421  -40.7339   -5.8631 C   0  0  0  0  0  0  0  0  0  0  0  0
  -22.7305  -41.7355   -5.9873 C   0  0  0  0  0  0  0  0  0  0  0  0
  -22.4823  -42.7634   -7.0675 C   0  0  2  0  0  0  0  0  0  0  0  0
  -23.8785  -43.1892   -7.5509 C   0  0  0  0  0  0  0  0  0  0  0  0
  -21.7910  -43.9979   -6.6147 C   0  0  0  0  0  0  0  0  0  0  0  0
  -20.3187  -43.9200   -6.4327 C   0  0  0  0  0  0  0  0  0  0  0  0
  -19.5517  -44.8389   -7.3345 C   0  0  0  0  0  0  0  0  0  0  0  0
  -20.0285  -45.9939   -7.4764 O   0  0  0  0  0  0  0  0  0  0  0  0
  -18.3722  -44.5004   -8.0084 N   0  0  0  0  0  0  0  0  0  0  0  0
  -17.3913  -45.5268   -8.3162 C   0  0  0  0  0  0  0  0  0  0  0  0
  -18.0578  -43.1266   -8.4344 C   0  0  1  0  0  0  0  0  0  0  0  0
  -19.2770  -42.6011   -9.1134 C   0  0  0  0  0  0  0  0  0  0  0  0
  -17.6072  -42.3634   -7.2617 C   0  0  0  0  0  0  0  0  0  0  0  0
  -16.9219  -42.9993   -6.3796 O   0  0  0  0  0  0  0  0  0  0  0  0
  -17.8845  -40.9831   -7.0542 N   0  0  0  0  0  0  0  0  0  0  0  0
  -15.0553  -37.5478  -10.6730 C   0  0  0  0  0  0  0  0  0  0  0  0
  -15.5239  -36.4772  -11.4413 C   0  0  0  0  0  0  0  0  0  0  0  0
  -14.9738  -36.2603  -12.6753 C   0  0  0  0  0  0  0  0  0  0  0  0
  1  2  1  0
  2  3  1  0
  2  4  1  0
  4  5  2  0
  5  6  1  0
  6  7  1  0
  7  8  1  0
  8  9  1  0
  9 10  1  0
 10 11  1  6
 10 12  1  0
 12 13  1  1
 13 14  1  0
 14 15  1  1
 14 16  1  0
 16 17  1  0
 17 18  1  0
 18 19  1  0
 19 20  1  0
 20 21  1  0
 21 22  1  1
 21 23  1  0
 23 24  1  0
 24 25  1  0
 25 26  2  0
 25 27  1  0
 27 28  1  0
 27 29  1  0
 29 30  1  1
 29 31  1  0
 31 32  2  0
 31 33  1  0
  6 34  2  0
 34 35  1  0
 35 36  2  0
 33 12  1  0
 36  4  1  0
M  END
$$$$
