
     RDKit          3D

 36 37  0  0  0  0  0  0  0  0999 V2000
  -24.0770  -42.0409   -6.4799 C   0  0  0  0  0  0  0  0  0  0  0  0
  -22.7499  -41.6010   -5.9103 C   0  0  0  0  0  0  0  0  0  0  0  0
  -22.9359  -41.0441   -4.5078 C   0  0  0  0  0  0  0  0  0  0  0  0
  -22.0865  -40.5892   -6.7559 C   0  0  0  0  0  0  0  0  0  0  0  0
  -20.9390  -39.9456   -6.3007 C   0  0  0  0  0  0  0  0  0  0  0  0
  -20.3286  -39.0022   -7.0966 C   0  0  0  0  0  0  0  0  0  0  0  0
  -19.0900  -38.3046   -6.6052 C   0  0  0  0  0  0  0  0  0  0  0  0
  -17.9843  -39.1034   -6.9894 N   0  0  0  0  0  0  0  0  0  0  0  0
  -16.6858  -38.6327   -6.7342 C   0  0  0  0  0  0  0  0  0  0  0  0
  -16.1834  -37.6714   -7.7789 C   0  0  1  0  0  0  0  0  0  0  0  0
  -15.3293  -36.7596   -7.1780 O   0  0  0  0  0  0  0  0  0  0  0  0
  -15.4146  -38.4340   -8.8749 C   0  0  2  0  0  0  0  0  0  0  0  0
  -14.3498  -37.5893   -9.4158 C   0  0  0  0  0  0  0  0  0  0  0  0
  -14.5801  -36.4733  -10.3154 C   0  0  2  0  0  0  0  0  0  0  0  0
  -15.8559  -36.3546  -11.0755 C   0  0  0  0  0  0  0  0  0  0  0  0
  -13.4639  -36.1656  -11.2788 C   0  0  0  0  0  0  0  0  0  0  0  0
  -12.8805  -37.2579  -12.0574 C   0  0  0  0  0  0  0  0  0  0  0  0
  -13.6229  -37.6357  -13.3369 C   0  0  0  0  0  0  0  0  0  0  0  0
  -14.3358  -38.9768  -13.1838 C   0  0  0  0  0  0  0  0  0  0  0  0
  -13.7577  -40.0750  -13.9981 C   0  0  0  0  0  0  0  0  0  0  0  0
  -13.4925  -41.3355  -13.2072 C   0  0  2  0  0  0  0  0  0  0  0  0
  -12.3073  -42.0153  -13.9127 C   0  0  0  0  0  0  0  0  0  0  0  0
  -14.6062  -42.3186  -13.1977 C   0  0  0  0  0  0  0  0  0  0  0  0
  -15.7386  -42.0482  -12.2749 C   0  0  0  0  0  0  0  0  0  0  0  0
  -15.9261  -43.1035  -11.2275 C   0  0  0  0  0  0  0  0  0  0  0  0
  -15.8062  -44.2929  -11.6181 O   0  0  0  0  0  0  0  0  0  0  0  0
  -16.2179  -42.8540   -9.8812 N   0  0  0  0  0  0  0  0  0  0  0  0
  -16.9766  -43.8239   -9.1104 C   0  0  0  0  0  0  0  0  0  0  0  0
  -15.7901  -41.6315   -9.1810 C   0  0  1  0  0  0  0  0  0  0  0  0
  -14.3459  -41.4408   -9.4996 C   0  0  0  0  0  0  0  0  0  0  0  0
  -16.6772  -40.5288   -9.5781 C   0  0  0  0  0  0  0  0  0  0  0  0
  -17.9107  -40.8202   -9.7923 O   0  0  0  0  0  0  0  0  0  0  0  0
  -16.2513  -39.1801   -9.7356 N   0  0  0  0  0  0  0  0  0  0  0  0
  -20.8240  -38.6766   -8.3353 C   0  0  0  0  0  0  0  0  0  0  0  0
  -21.9767  -39.3228   -8.7935 C   0  0  0  0  0  0  0  0  0  0  0  0
  -22.5718  -40.2578   -7.9911 C   0  0  0  0  0  0  0  0  0  0  0  0
  1  2  1  0
  2  3  1  0
  2  4  1  0
  4  5  2  0
  5  6  1  0
  6  7  1  0
  7  8  1  0
  8  9  1  0
  9 10  1  0
 10 11  1  1
 10 12  1  0
 12 13  1  6
 13 14  1  0
 14 15  1  6
 14 16  1  0
 16 17  1  0
 17 18  1  0
 18 19  1  0
 19 20  1  0
 20 21  1  0
 21 22  1  6
 21 23  1  0
 23 24  1  0
 24 25  1  0
 25 26  2  0
 25 27  1  0
 27 28  1  0
 27 29  1  0
 29 30  1  6
 29 31  1  0
 31 32  2  0
 31 33  1  0
  6 34  2  0
 34 35  1  0
 35 36  2  0
 33 12  1  0
 36  4  1  0
M  END
$$$$
