
     RDKit          3D

 36 37  0  0  0  0  0  0  0  0999 V2000
  -14.7018  -34.7970  -11.3130 C   0  0  0  0  0  0  0  0  0  0  0  0
  -13.5662  -35.6104  -11.8855 C   0  0  0  0  0  0  0  0  0  0  0  0
  -13.1063  -35.0173  -13.2079 C   0  0  0  0  0  0  0  0  0  0  0  0
  -13.9370  -37.0252  -12.0850 C   0  0  0  0  0  0  0  0  0  0  0  0
  -13.4868  -37.9951  -11.1936 C   0  0  0  0  0  0  0  0  0  0  0  0
  -13.8370  -39.3123  -11.3894 C   0  0  0  0  0  0  0  0  0  0  0  0
  -13.3496  -40.3616  -10.4283 C   0  0  0  0  0  0  0  0  0  0  0  0
  -14.0859  -40.1988   -9.2285 N   0  0  0  0  0  0  0  0  0  0  0  0
  -15.4470  -39.8612   -9.3081 C   0  0  0  0  0  0  0  0  0  0  0  0
  -16.0666  -39.5606   -7.9688 C   0  0  1  0  0  0  0  0  0  0  0  0
  -16.0299  -38.1917   -7.7530 O   0  0  0  0  0  0  0  0  0  0  0  0
  -17.5325  -40.0345   -7.9446 C   0  0  2  0  0  0  0  0  0  0  0  0
  -18.4260  -38.9023   -8.1892 C   0  0  0  0  0  0  0  0  0  0  0  0
  -18.7142  -37.8720   -7.2079 C   0  0  2  0  0  0  0  0  0  0  0  0
  -18.4535  -38.1015   -5.7592 C   0  0  0  0  0  0  0  0  0  0  0  0
  -20.0706  -37.2257   -7.3138 C   0  0  0  0  0  0  0  0  0  0  0  0
  -21.2532  -38.0786   -7.4309 C   0  0  0  0  0  0  0  0  0  0  0  0
  -21.8225  -38.6133   -6.1191 C   0  0  0  0  0  0  0  0  0  0  0  0
  -21.5464  -40.1071   -5.9678 C   0  0  0  0  0  0  0  0  0  0  0  0
  -22.7536  -40.9660   -6.0585 C   0  0  0  0  0  0  0  0  0  0  0  0
  -22.5995  -42.1212   -7.0210 C   0  0  2  0  0  0  0  0  0  0  0  0
  -24.0179  -42.4084   -7.5406 C   0  0  0  0  0  0  0  0  0  0  0  0
  -22.1017  -43.3831   -6.4152 C   0  0  0  0  0  0  0  0  0  0  0  0
  -20.6418  -43.4794   -6.1580 C   0  0  0  0  0  0  0  0  0  0  0  0
  -19.9672  -44.5767   -6.9240 C   0  0  0  0  0  0  0  0  0  0  0  0
  -20.5890  -45.6682   -6.9831 O   0  0  0  0  0  0  0  0  0  0  0  0
  -18.7244  -44.4645   -7.5588 N   0  0  0  0  0  0  0  0  0  0  0  0
  -17.8787  -45.6356   -7.7121 C   0  0  0  0  0  0  0  0  0  0  0  0
  -18.2091  -43.1934   -8.0940 C   0  0  1  0  0  0  0  0  0  0  0  0
  -19.3152  -42.5851   -8.8877 C   0  0  0  0  0  0  0  0  0  0  0  0
  -17.7113  -42.3807   -6.9749 C   0  0  0  0  0  0  0  0  0  0  0  0
  -17.1573  -43.0079   -5.9992 O   0  0  0  0  0  0  0  0  0  0  0  0
  -17.8084  -40.9622   -6.9147 N   0  0  0  0  0  0  0  0  0  0  0  0
  -14.6236  -39.6980  -12.4470 C   0  0  0  0  0  0  0  0  0  0  0  0
  -15.0764  -38.7242  -13.3430 C   0  0  0  0  0  0  0  0  0  0  0  0
  -14.7198  -37.4196  -13.1349 C   0  0  0  0  0  0  0  0  0  0  0  0
  1  2  1  0
  2  3  1  0
  2  4  1  0
  4  5  2  0
  5  6  1  0
  6  7  1  0
  7  8  1  0
  8  9  1  0
  9 10  1  0
 10 11  1  6
 10 12  1  0
 12 13  1  1
 13 14  1  0
 14 15  1  1
 14 16  1  0
 16 17  1  0
 17 18  1  0
 18 19  1  0
 19 20  1  0
 20 21  1  0
 21 22  1  1
 21 23  1  0
 23 24  1  0
 24 25  1  0
 25 26  2  0
 25 27  1  0
 27 28  1  0
 27 29  1  0
 29 30  1  1
 29 31  1  0
 31 32  2  0
 31 33  1  0
  6 34  2  0
 34 35  1  0
 35 36  2  0
 33 12  1  0
 36  4  1  0
M  END
$$$$
