
     RDKit          3D

 36 37  0  0  0  0  0  0  0  0999 V2000
  -12.2063  -35.1803  -12.2862 C   0  0  0  0  0  0  0  0  0  0  0  0
  -13.5374  -35.7897  -12.6547 C   0  0  0  0  0  0  0  0  0  0  0  0
  -14.6605  -35.1061  -11.8910 C   0  0  0  0  0  0  0  0  0  0  0  0
  -13.5791  -37.2418  -12.3928 C   0  0  0  0  0  0  0  0  0  0  0  0
  -13.3769  -37.7224  -11.1019 C   0  0  0  0  0  0  0  0  0  0  0  0
  -13.4163  -39.0788  -10.8684 C   0  0  0  0  0  0  0  0  0  0  0  0
  -13.1960  -39.5996   -9.4747 C   0  0  0  0  0  0  0  0  0  0  0  0
  -14.2884  -40.4503   -9.1726 N   0  0  0  0  0  0  0  0  0  0  0  0
  -15.5944  -39.9494   -9.3013 C   0  0  0  0  0  0  0  0  0  0  0  0
  -16.2666  -39.6888   -7.9791 C   0  0  1  0  0  0  0  0  0  0  0  0
  -16.2497  -38.3259   -7.7265 O   0  0  0  0  0  0  0  0  0  0  0  0
  -17.7283  -40.1742   -8.0229 C   0  0  2  0  0  0  0  0  0  0  0  0
  -18.6228  -39.0403   -8.2554 C   0  0  0  0  0  0  0  0  0  0  0  0
  -18.9531  -38.0499   -7.2467 C   0  0  2  0  0  0  0  0  0  0  0  0
  -18.7398  -38.3320   -5.7995 C   0  0  0  0  0  0  0  0  0  0  0  0
  -20.3107  -37.4101   -7.3746 C   0  0  0  0  0  0  0  0  0  0  0  0
  -21.4812  -38.2668   -7.5642 C   0  0  0  0  0  0  0  0  0  0  0  0
  -22.0900  -38.8548   -6.2935 C   0  0  0  0  0  0  0  0  0  0  0  0
  -21.8062  -40.3511   -6.1890 C   0  0  0  0  0  0  0  0  0  0  0  0
  -23.0022  -41.2149   -6.3531 C   0  0  0  0  0  0  0  0  0  0  0  0
  -22.8054  -42.3318   -7.3524 C   0  0  2  0  0  0  0  0  0  0  0  0
  -24.2028  -42.6098   -7.9307 C   0  0  0  0  0  0  0  0  0  0  0  0
  -22.3175  -43.6119   -6.7776 C   0  0  0  0  0  0  0  0  0  0  0  0
  -20.8664  -43.7071   -6.4743 C   0  0  0  0  0  0  0  0  0  0  0  0
  -20.1567  -44.7696   -7.2573 C   0  0  0  0  0  0  0  0  0  0  0  0
  -20.7665  -45.8627   -7.3786 O   0  0  0  0  0  0  0  0  0  0  0  0
  -18.8941  -44.6243   -7.8445 N   0  0  0  0  0  0  0  0  0  0  0  0
  -18.0334  -45.7825   -8.0126 C   0  0  0  0  0  0  0  0  0  0  0  0
  -18.3719  -43.3302   -8.3138 C   0  0  1  0  0  0  0  0  0  0  0  0
  -19.4557  -42.7006   -9.1215 C   0  0  0  0  0  0  0  0  0  0  0  0
  -17.9195  -42.5566   -7.1486 C   0  0  0  0  0  0  0  0  0  0  0  0
  -17.3935  -43.2161   -6.1787 O   0  0  0  0  0  0  0  0  0  0  0  0
  -18.0310  -41.1422   -7.0386 N   0  0  0  0  0  0  0  0  0  0  0  0
  -13.6512  -39.9766  -11.8808 C   0  0  0  0  0  0  0  0  0  0  0  0
  -13.8545  -39.4946  -13.1778 C   0  0  0  0  0  0  0  0  0  0  0  0
  -13.8123  -38.1441  -13.3939 C   0  0  0  0  0  0  0  0  0  0  0  0
  1  2  1  0
  2  3  1  0
  2  4  1  0
  4  5  2  0
  5  6  1  0
  6  7  1  0
  7  8  1  0
  8  9  1  0
  9 10  1  0
 10 11  1  6
 10 12  1  0
 12 13  1  1
 13 14  1  0
 14 15  1  1
 14 16  1  0
 16 17  1  0
 17 18  1  0
 18 19  1  0
 19 20  1  0
 20 21  1  0
 21 22  1  1
 21 23  1  0
 23 24  1  0
 24 25  1  0
 25 26  2  0
 25 27  1  0
 27 28  1  0
 27 29  1  0
 29 30  1  1
 29 31  1  0
 31 32  2  0
 31 33  1  0
  6 34  2  0
 34 35  1  0
 35 36  2  0
 33 12  1  0
 36  4  1  0
M  END
$$$$
