
     RDKit          3D

 36 37  0  0  0  0  0  0  0  0999 V2000
  -10.7592  -37.7524  -14.3295 C   0  0  0  0  0  0  0  0  0  0  0  0
  -11.0289  -37.6850  -12.8457 C   0  0  0  0  0  0  0  0  0  0  0  0
   -9.7452  -37.9178  -12.0646 C   0  0  0  0  0  0  0  0  0  0  0  0
  -12.0478  -38.6637  -12.4178 C   0  0  0  0  0  0  0  0  0  0  0  0
  -13.0522  -38.2810  -11.5331 C   0  0  0  0  0  0  0  0  0  0  0  0
  -13.9970  -39.2019  -11.1389 C   0  0  0  0  0  0  0  0  0  0  0  0
  -15.0816  -38.7904  -10.1814 C   0  0  0  0  0  0  0  0  0  0  0  0
  -15.9281  -39.9134  -10.0067 N   0  0  0  0  0  0  0  0  0  0  0  0
  -15.9508  -40.5585   -8.7592 C   0  0  0  0  0  0  0  0  0  0  0  0
  -16.7521  -39.8199   -7.7198 C   0  0  1  0  0  0  0  0  0  0  0  0
  -16.7822  -38.4733   -8.0479 O   0  0  0  0  0  0  0  0  0  0  0  0
  -18.1944  -40.3602   -7.6797 C   0  0  2  0  0  0  0  0  0  0  0  0
  -19.1409  -39.2720   -7.9249 C   0  0  0  0  0  0  0  0  0  0  0  0
  -19.4679  -38.2485   -6.9486 C   0  0  2  0  0  0  0  0  0  0  0  0
  -19.1852  -38.4548   -5.5006 C   0  0  0  0  0  0  0  0  0  0  0  0
  -20.8533  -37.6657   -7.0476 C   0  0  0  0  0  0  0  0  0  0  0  0
  -21.9965  -38.5728   -7.1485 C   0  0  0  0  0  0  0  0  0  0  0  0
  -22.5300  -39.1230   -5.8280 C   0  0  0  0  0  0  0  0  0  0  0  0
  -22.1845  -40.6013   -5.6683 C   0  0  0  0  0  0  0  0  0  0  0  0
  -23.3518  -41.5152   -5.7425 C   0  0  0  0  0  0  0  0  0  0  0  0
  -23.1528  -42.6695   -6.6980 C   0  0  2  0  0  0  0  0  0  0  0  0
  -24.5607  -43.0253   -7.2034 C   0  0  0  0  0  0  0  0  0  0  0  0
  -22.5928  -43.9026   -6.0873 C   0  0  0  0  0  0  0  0  0  0  0  0
  -21.1279  -43.9301   -5.8419 C   0  0  0  0  0  0  0  0  0  0  0  0
  -20.4100  -45.0011   -6.6056 C   0  0  0  0  0  0  0  0  0  0  0  0
  -20.9816  -46.1204   -6.6516 O   0  0  0  0  0  0  0  0  0  0  0  0
  -19.1789  -44.8370   -7.2517 N   0  0  0  0  0  0  0  0  0  0  0  0
  -18.2817  -45.9693   -7.4039 C   0  0  0  0  0  0  0  0  0  0  0  0
  -18.7268  -43.5478   -7.8006 C   0  0  1  0  0  0  0  0  0  0  0  0
  -19.8661  -42.9968   -8.5891 C   0  0  0  0  0  0  0  0  0  0  0  0
  -18.2576  -42.7046   -6.6916 C   0  0  0  0  0  0  0  0  0  0  0  0
  -17.6675  -43.2984   -5.7162 O   0  0  0  0  0  0  0  0  0  0  0  0
  -18.4191  -41.2917   -6.6408 N   0  0  0  0  0  0  0  0  0  0  0  0
  -13.9755  -40.4961  -11.5977 C   0  0  0  0  0  0  0  0  0  0  0  0
  -12.9668  -40.8813  -12.4866 C   0  0  0  0  0  0  0  0  0  0  0  0
  -12.0352  -39.9548  -12.8689 C   0  0  0  0  0  0  0  0  0  0  0  0
  1  2  1  0
  2  3  1  0
  2  4  1  0
  4  5  2  0
  5  6  1  0
  6  7  1  0
  7  8  1  0
  8  9  1  0
  9 10  1  0
 10 11  1  6
 10 12  1  0
 12 13  1  1
 13 14  1  0
 14 15  1  1
 14 16  1  0
 16 17  1  0
 17 18  1  0
 18 19  1  0
 19 20  1  0
 20 21  1  0
 21 22  1  1
 21 23  1  0
 23 24  1  0
 24 25  1  0
 25 26  2  0
 25 27  1  0
 27 28  1  0
 27 29  1  0
 29 30  1  1
 29 31  1  0
 31 32  2  0
 31 33  1  0
  6 34  2  0
 34 35  1  0
 35 36  2  0
 33 12  1  0
 36  4  1  0
M  END
$$$$
