
     RDKit          3D

 36 37  0  0  0  0  0  0  0  0999 V2000
  -21.9481  -37.6772   -8.8118 C   0  0  0  0  0  0  0  0  0  0  0  0
  -22.3917  -39.1073   -8.6201 C   0  0  0  0  0  0  0  0  0  0  0  0
  -23.6546  -39.1597   -7.7751 C   0  0  0  0  0  0  0  0  0  0  0  0
  -21.3457  -39.9375   -7.9909 C   0  0  0  0  0  0  0  0  0  0  0  0
  -20.6756  -39.4749   -6.8617 C   0  0  0  0  0  0  0  0  0  0  0  0
  -19.7005  -40.2563   -6.2832 C   0  0  0  0  0  0  0  0  0  0  0  0
  -18.9741  -39.7570   -5.0644 C   0  0  0  0  0  0  0  0  0  0  0  0
  -17.8495  -39.0264   -5.5224 N   0  0  0  0  0  0  0  0  0  0  0  0
  -17.3390  -39.2984   -6.8025 C   0  0  0  0  0  0  0  0  0  0  0  0
  -16.1726  -38.4230   -7.1782 C   0  0  1  0  0  0  0  0  0  0  0  0
  -15.3126  -38.3297   -6.0950 O   0  0  0  0  0  0  0  0  0  0  0  0
  -15.4139  -39.0344   -8.3717 C   0  0  2  0  0  0  0  0  0  0  0  0
  -14.3176  -38.1515   -8.7699 C   0  0  0  0  0  0  0  0  0  0  0  0
  -14.5032  -36.9053   -9.4911 C   0  0  2  0  0  0  0  0  0  0  0  0
  -15.7655  -36.6324  -10.2338 C   0  0  0  0  0  0  0  0  0  0  0  0
  -13.3667  -36.4904  -10.3881 C   0  0  0  0  0  0  0  0  0  0  0  0
  -12.8069  -37.4698  -11.3193 C   0  0  0  0  0  0  0  0  0  0  0  0
  -13.5447  -37.6254  -12.6469 C   0  0  0  0  0  0  0  0  0  0  0  0
  -14.2995  -38.9511  -12.7048 C   0  0  0  0  0  0  0  0  0  0  0  0
  -13.7448  -39.9307  -13.6723 C   0  0  0  0  0  0  0  0  0  0  0  0
  -13.5273  -41.3044  -13.0802 C   0  0  2  0  0  0  0  0  0  0  0  0
  -12.3546  -41.9064  -13.8719 C   0  0  0  0  0  0  0  0  0  0  0  0
  -14.6702  -42.2418  -13.2285 C   0  0  0  0  0  0  0  0  0  0  0  0
  -15.8050  -42.0790  -12.2838 C   0  0  0  0  0  0  0  0  0  0  0  0
  -16.0369  -43.2745  -11.4105 C   0  0  0  0  0  0  0  0  0  0  0  0
  -15.9482  -44.3940  -11.9765 O   0  0  0  0  0  0  0  0  0  0  0  0
  -16.3375  -43.2230  -10.0441 N   0  0  0  0  0  0  0  0  0  0  0  0
  -17.1344  -44.2741   -9.4354 C   0  0  0  0  0  0  0  0  0  0  0  0
  -15.8816  -42.1350   -9.1630 C   0  0  1  0  0  0  0  0  0  0  0  0
  -14.4286  -41.9439   -9.4381 C   0  0  0  0  0  0  0  0  0  0  0  0
  -16.7303  -40.9573   -9.3945 C   0  0  0  0  0  0  0  0  0  0  0  0
  -17.9692  -41.1738   -9.6597 O   0  0  0  0  0  0  0  0  0  0  0  0
  -16.2621  -39.6145   -9.3420 N   0  0  0  0  0  0  0  0  0  0  0  0
  -19.3688  -41.4876   -6.7929 C   0  0  0  0  0  0  0  0  0  0  0  0
  -20.0417  -41.9531   -7.9272 C   0  0  0  0  0  0  0  0  0  0  0  0
  -21.0080  -41.1651   -8.4906 C   0  0  0  0  0  0  0  0  0  0  0  0
  1  2  1  0
  2  3  1  0
  2  4  1  0
  4  5  2  0
  5  6  1  0
  6  7  1  0
  7  8  1  0
  8  9  1  0
  9 10  1  0
 10 11  1  1
 10 12  1  0
 12 13  1  6
 13 14  1  0
 14 15  1  6
 14 16  1  0
 16 17  1  0
 17 18  1  0
 18 19  1  0
 19 20  1  0
 20 21  1  0
 21 22  1  6
 21 23  1  0
 23 24  1  0
 24 25  1  0
 25 26  2  0
 25 27  1  0
 27 28  1  0
 27 29  1  0
 29 30  1  6
 29 31  1  0
 31 32  2  0
 31 33  1  0
  6 34  2  0
 34 35  1  0
 35 36  2  0
 33 12  1  0
 36  4  1  0
M  END
$$$$
