
     RDKit          3D

 36 37  0  0  0  0  0  0  0  0999 V2000
  -12.7842  -38.5470  -14.8756 C   0  0  0  0  0  0  0  0  0  0  0  0
  -13.3632  -37.2172  -14.4567 C   0  0  0  0  0  0  0  0  0  0  0  0
  -12.3646  -36.1007  -14.7182 C   0  0  0  0  0  0  0  0  0  0  0  0
  -13.7550  -37.2015  -13.0336 C   0  0  0  0  0  0  0  0  0  0  0  0
  -13.2576  -38.1681  -12.1639 C   0  0  0  0  0  0  0  0  0  0  0  0
  -13.6304  -38.1456  -10.8386 C   0  0  0  0  0  0  0  0  0  0  0  0
  -13.0955  -39.1905   -9.8983 C   0  0  0  0  0  0  0  0  0  0  0  0
  -13.9789  -39.2435   -8.7915 N   0  0  0  0  0  0  0  0  0  0  0  0
  -15.2585  -39.7946   -8.9704 C   0  0  0  0  0  0  0  0  0  0  0  0
  -16.3202  -39.1191   -8.1431 C   0  0  1  0  0  0  0  0  0  0  0  0
  -16.5535  -37.8530   -8.6572 O   0  0  0  0  0  0  0  0  0  0  0  0
  -17.6284  -39.9315   -8.1938 C   0  0  2  0  0  0  0  0  0  0  0  0
  -18.7621  -39.0360   -8.4236 C   0  0  0  0  0  0  0  0  0  0  0  0
  -19.3160  -38.1553   -7.4112 C   0  0  2  0  0  0  0  0  0  0  0  0
  -19.0456  -38.3876   -5.9647 C   0  0  0  0  0  0  0  0  0  0  0  0
  -20.7851  -37.8488   -7.5403 C   0  0  0  0  0  0  0  0  0  0  0  0
  -21.7233  -38.9537   -7.7375 C   0  0  0  0  0  0  0  0  0  0  0  0
  -22.1808  -39.6742   -6.4716 C   0  0  0  0  0  0  0  0  0  0  0  0
  -21.5563  -41.0637   -6.3733 C   0  0  0  0  0  0  0  0  0  0  0  0
  -22.5176  -42.1816   -6.5452 C   0  0  0  0  0  0  0  0  0  0  0  0
  -22.0641  -43.2165   -7.5492 C   0  0  2  0  0  0  0  0  0  0  0  0
  -23.3571  -43.8093   -8.1332 C   0  0  0  0  0  0  0  0  0  0  0  0
  -21.2924  -44.3507   -6.9790 C   0  0  0  0  0  0  0  0  0  0  0  0
  -19.8596  -44.1067   -6.6717 C   0  0  0  0  0  0  0  0  0  0  0  0
  -18.9203  -44.9703   -7.4576 C   0  0  0  0  0  0  0  0  0  0  0  0
  -19.2584  -46.1748   -7.5859 O   0  0  0  0  0  0  0  0  0  0  0  0
  -17.7252  -44.5316   -8.0401 N   0  0  0  0  0  0  0  0  0  0  0  0
  -16.6180  -45.4564   -8.2111 C   0  0  0  0  0  0  0  0  0  0  0  0
  -17.5182  -43.1489   -8.5016 C   0  0  1  0  0  0  0  0  0  0  0  0
  -18.7174  -42.7849   -9.3097 C   0  0  0  0  0  0  0  0  0  0  0  0
  -17.2607  -42.2974   -7.3314 C   0  0  0  0  0  0  0  0  0  0  0  0
  -16.5974  -42.8214   -6.3630 O   0  0  0  0  0  0  0  0  0  0  0  0
  -17.6990  -40.9486   -7.2150 N   0  0  0  0  0  0  0  0  0  0  0  0
  -14.4852  -37.1893  -10.3479 C   0  0  0  0  0  0  0  0  0  0  0  0
  -14.9853  -36.2177  -11.2209 C   0  0  0  0  0  0  0  0  0  0  0  0
  -14.6055  -36.2535  -12.5349 C   0  0  0  0  0  0  0  0  0  0  0  0
  1  2  1  0
  2  3  1  0
  2  4  1  0
  4  5  2  0
  5  6  1  0
  6  7  1  0
  7  8  1  0
  8  9  1  0
  9 10  1  0
 10 11  1  6
 10 12  1  0
 12 13  1  1
 13 14  1  0
 14 15  1  1
 14 16  1  0
 16 17  1  0
 17 18  1  0
 18 19  1  0
 19 20  1  0
 20 21  1  0
 21 22  1  1
 21 23  1  0
 23 24  1  0
 24 25  1  0
 25 26  2  0
 25 27  1  0
 27 28  1  0
 27 29  1  0
 29 30  1  1
 29 31  1  0
 31 32  2  0
 31 33  1  0
  6 34  2  0
 34 35  1  0
 35 36  2  0
 33 12  1  0
 36  4  1  0
M  END
$$$$
