
     RDKit          3D

 36 37  0  0  0  0  0  0  0  0999 V2000
  -11.7804  -38.6903  -13.1578 C   0  0  0  0  0  0  0  0  0  0  0  0
  -12.1250  -37.2220  -13.0929 C   0  0  0  0  0  0  0  0  0  0  0  0
  -10.8651  -36.3917  -12.9056 C   0  0  0  0  0  0  0  0  0  0  0  0
  -13.0780  -36.9190  -12.0071 C   0  0  0  0  0  0  0  0  0  0  0  0
  -13.1725  -37.7669  -10.9071 C   0  0  0  0  0  0  0  0  0  0  0  0
  -14.0658  -37.4762   -9.9003 C   0  0  0  0  0  0  0  0  0  0  0  0
  -14.1704  -38.3926   -8.7122 C   0  0  0  0  0  0  0  0  0  0  0  0
  -15.4810  -38.2494   -8.1925 N   0  0  0  0  0  0  0  0  0  0  0  0
  -16.4007  -39.2956   -8.3733 C   0  0  0  0  0  0  0  0  0  0  0  0
  -17.6373  -38.8797   -9.1255 C   0  0  1  0  0  0  0  0  0  0  0  0
  -17.4334  -39.0932  -10.4800 O   0  0  0  0  0  0  0  0  0  0  0  0
  -18.8461  -39.7144   -8.6610 C   0  0  2  0  0  0  0  0  0  0  0  0
  -20.0411  -38.8724   -8.6056 C   0  0  0  0  0  0  0  0  0  0  0  0
  -20.2890  -37.8863   -7.5693 C   0  0  2  0  0  0  0  0  0  0  0  0
  -19.5572  -37.9392   -6.2727 C   0  0  0  0  0  0  0  0  0  0  0  0
  -21.7364  -37.6226   -7.2469 C   0  0  0  0  0  0  0  0  0  0  0  0
  -22.6263  -38.7589   -7.0087 C   0  0  0  0  0  0  0  0  0  0  0  0
  -22.6139  -39.3304   -5.5930 C   0  0  0  0  0  0  0  0  0  0  0  0
  -21.9156  -40.6873   -5.5535 C   0  0  0  0  0  0  0  0  0  0  0  0
  -22.8186  -41.8339   -5.2827 C   0  0  0  0  0  0  0  0  0  0  0  0
  -22.6545  -42.9737   -6.2618 C   0  0  2  0  0  0  0  0  0  0  0  0
  -24.0319  -43.6541   -6.3270 C   0  0  0  0  0  0  0  0  0  0  0  0
  -21.6798  -44.0182   -5.8542 C   0  0  0  0  0  0  0  0  0  0  0  0
  -20.2397  -43.7147   -6.0567 C   0  0  0  0  0  0  0  0  0  0  0  0
  -19.5558  -44.6502   -7.0069 C   0  0  0  0  0  0  0  0  0  0  0  0
  -19.8506  -45.8669   -6.8880 O   0  0  0  0  0  0  0  0  0  0  0  0
  -18.6362  -44.2641   -7.9895 N   0  0  0  0  0  0  0  0  0  0  0  0
  -17.5932  -45.1837   -8.4098 C   0  0  0  0  0  0  0  0  0  0  0  0
  -18.6641  -42.9432   -8.6394 C   0  0  1  0  0  0  0  0  0  0  0  0
  -20.0770  -42.6991   -9.0488 C   0  0  0  0  0  0  0  0  0  0  0  0
  -18.0925  -41.9535   -7.7149 C   0  0  0  0  0  0  0  0  0  0  0  0
  -17.1262  -42.3464   -6.9638 O   0  0  0  0  0  0  0  0  0  0  0  0
  -18.5436  -40.6081   -7.6087 N   0  0  0  0  0  0  0  0  0  0  0  0
  -14.8713  -36.3652   -9.9519 C   0  0  0  0  0  0  0  0  0  0  0  0
  -14.7770  -35.5127  -11.0566 C   0  0  0  0  0  0  0  0  0  0  0  0
  -13.8847  -35.8151  -12.0489 C   0  0  0  0  0  0  0  0  0  0  0  0
  1  2  1  0
  2  3  1  0
  2  4  1  0
  4  5  2  0
  5  6  1  0
  6  7  1  0
  7  8  1  0
  8  9  1  0
  9 10  1  0
 10 11  1  6
 10 12  1  0
 12 13  1  1
 13 14  1  0
 14 15  1  1
 14 16  1  0
 16 17  1  0
 17 18  1  0
 18 19  1  0
 19 20  1  0
 20 21  1  0
 21 22  1  1
 21 23  1  0
 23 24  1  0
 24 25  1  0
 25 26  2  0
 25 27  1  0
 27 28  1  0
 27 29  1  0
 29 30  1  1
 29 31  1  0
 31 32  2  0
 31 33  1  0
  6 34  2  0
 34 35  1  0
 35 36  2  0
 33 12  1  0
 36  4  1  0
M  END
$$$$
