
     RDKit          3D

 36 37  0  0  0  0  0  0  0  0999 V2000
  -14.3936  -42.3672  -13.8816 C   0  0  0  0  0  0  0  0  0  0  0  0
  -13.9708  -40.9385  -13.6388 C   0  0  0  0  0  0  0  0  0  0  0  0
  -13.1188  -40.4365  -14.7938 C   0  0  0  0  0  0  0  0  0  0  0  0
  -13.2241  -40.7835  -12.3749 C   0  0  0  0  0  0  0  0  0  0  0  0
  -13.6971  -39.9232  -11.3880 C   0  0  0  0  0  0  0  0  0  0  0  0
  -12.9923  -39.7846  -10.2132 C   0  0  0  0  0  0  0  0  0  0  0  0
  -13.5011  -38.8538   -9.1468 C   0  0  0  0  0  0  0  0  0  0  0  0
  -14.1206  -39.6567   -8.1569 N   0  0  0  0  0  0  0  0  0  0  0  0
  -15.3796  -40.2173   -8.4281 C   0  0  0  0  0  0  0  0  0  0  0  0
  -16.3923  -39.2087   -8.9026 C   0  0  1  0  0  0  0  0  0  0  0  0
  -16.2641  -39.0534  -10.2742 O   0  0  0  0  0  0  0  0  0  0  0  0
  -17.8178  -39.6981   -8.5828 C   0  0  2  0  0  0  0  0  0  0  0  0
  -18.7937  -38.6836   -8.9807 C   0  0  0  0  0  0  0  0  0  0  0  0
  -19.0233  -37.4507   -8.2494 C   0  0  2  0  0  0  0  0  0  0  0  0
  -18.5867  -37.3098   -6.8320 C   0  0  0  0  0  0  0  0  0  0  0  0
  -20.4160  -36.8841   -8.3389 C   0  0  0  0  0  0  0  0  0  0  0  0
  -21.5562  -37.7685   -8.0989 C   0  0  0  0  0  0  0  0  0  0  0  0
  -21.9418  -37.9775   -6.6365 C   0  0  0  0  0  0  0  0  0  0  0  0
  -21.5695  -39.3806   -6.1644 C   0  0  0  0  0  0  0  0  0  0  0  0
  -22.7307  -40.2650   -5.8944 C   0  0  0  0  0  0  0  0  0  0  0  0
  -22.6251  -41.6176   -6.5609 C   0  0  2  0  0  0  0  0  0  0  0  0
  -24.0759  -42.0589   -6.8155 C   0  0  0  0  0  0  0  0  0  0  0  0
  -21.9934  -42.6786   -5.7349 C   0  0  0  0  0  0  0  0  0  0  0  0
  -20.5106  -42.6726   -5.6453 C   0  0  0  0  0  0  0  0  0  0  0  0
  -19.8694  -43.9077   -6.2013 C   0  0  0  0  0  0  0  0  0  0  0  0
  -20.4336  -44.9952   -5.9174 O   0  0  0  0  0  0  0  0  0  0  0  0
  -18.7153  -43.9246   -6.9936 N   0  0  0  0  0  0  0  0  0  0  0  0
  -17.8302  -45.0762   -6.9634 C   0  0  0  0  0  0  0  0  0  0  0  0
  -18.3344  -42.8123   -7.8798 C   0  0  1  0  0  0  0  0  0  0  0  0
  -19.5555  -42.4457   -8.6531 C   0  0  0  0  0  0  0  0  0  0  0  0
  -17.7568  -41.7369   -7.0608 C   0  0  0  0  0  0  0  0  0  0  0  0
  -17.0616  -42.0906   -6.0391 O   0  0  0  0  0  0  0  0  0  0  0  0
  -17.9234  -40.3501   -7.3333 N   0  0  0  0  0  0  0  0  0  0  0  0
  -11.8279  -40.4765   -9.9869 C   0  0  0  0  0  0  0  0  0  0  0  0
  -11.3520  -41.3412  -10.9779 C   0  0  0  0  0  0  0  0  0  0  0  0
  -12.0635  -41.4681  -12.1397 C   0  0  0  0  0  0  0  0  0  0  0  0
  1  2  1  0
  2  3  1  0
  2  4  1  0
  4  5  2  0
  5  6  1  0
  6  7  1  0
  7  8  1  0
  8  9  1  0
  9 10  1  0
 10 11  1  6
 10 12  1  0
 12 13  1  1
 13 14  1  0
 14 15  1  1
 14 16  1  0
 16 17  1  0
 17 18  1  0
 18 19  1  0
 19 20  1  0
 20 21  1  0
 21 22  1  1
 21 23  1  0
 23 24  1  0
 24 25  1  0
 25 26  2  0
 25 27  1  0
 27 28  1  0
 27 29  1  0
 29 30  1  1
 29 31  1  0
 31 32  2  0
 31 33  1  0
  6 34  2  0
 34 35  1  0
 35 36  2  0
 33 12  1  0
 36  4  1  0
M  END
$$$$
