
     RDKit          3D

 36 37  0  0  0  0  0  0  0  0999 V2000
  -23.8640  -41.9989   -5.6372 C   0  0  0  0  0  0  0  0  0  0  0  0
  -22.9543  -41.2879   -4.6647 C   0  0  0  0  0  0  0  0  0  0  0  0
  -23.6282  -40.0332   -4.1322 C   0  0  0  0  0  0  0  0  0  0  0  0
  -21.6581  -40.9282   -5.2725 C   0  0  0  0  0  0  0  0  0  0  0  0
  -21.1146  -41.7256   -6.2759 C   0  0  0  0  0  0  0  0  0  0  0  0
  -19.9041  -41.3822   -6.8352 C   0  0  0  0  0  0  0  0  0  0  0  0
  -19.3146  -42.2440   -7.9179 C   0  0  0  0  0  0  0  0  0  0  0  0
  -18.0414  -41.7052   -8.2293 N   0  0  0  0  0  0  0  0  0  0  0  0
  -17.8007  -40.3443   -7.9789 C   0  0  0  0  0  0  0  0  0  0  0  0
  -18.1184  -39.4561   -9.1528 C   0  0  1  0  0  0  0  0  0  0  0  0
  -18.9909  -38.4607   -8.7409 O   0  0  0  0  0  0  0  0  0  0  0  0
  -16.8292  -38.8048   -9.6890 C   0  0  2  0  0  0  0  0  0  0  0  0
  -16.8787  -37.3576   -9.4813 C   0  0  0  0  0  0  0  0  0  0  0  0
  -17.6961  -36.4542  -10.2708 C   0  0  2  0  0  0  0  0  0  0  0  0
  -18.2255  -36.8668  -11.6008 C   0  0  0  0  0  0  0  0  0  0  0  0
  -17.1651  -35.0531  -10.4243 C   0  0  0  0  0  0  0  0  0  0  0  0
  -15.7710  -34.8650  -10.8254 C   0  0  0  0  0  0  0  0  0  0  0  0
  -15.4942  -34.9288  -12.3254 C   0  0  0  0  0  0  0  0  0  0  0  0
  -14.7601  -36.2152  -12.6952 C   0  0  0  0  0  0  0  0  0  0  0  0
  -13.3546  -36.0160  -13.1293 C   0  0  0  0  0  0  0  0  0  0  0  0
  -12.3720  -36.9202  -12.4210 C   0  0  2  0  0  0  0  0  0  0  0  0
  -11.0475  -36.1395  -12.3961 C   0  0  0  0  0  0  0  0  0  0  0  0
  -12.0963  -38.2093  -13.1060 C   0  0  0  0  0  0  0  0  0  0  0  0
  -13.1079  -39.2863  -12.9521 C   0  0  0  0  0  0  0  0  0  0  0  0
  -12.5824  -40.5118  -12.2683 C   0  0  0  0  0  0  0  0  0  0  0  0
  -11.4314  -40.8829  -12.6134 O   0  0  0  0  0  0  0  0  0  0  0  0
  -13.2736  -41.2470  -11.2978 N   0  0  0  0  0  0  0  0  0  0  0  0
  -13.0282  -42.6716  -11.1543 C   0  0  0  0  0  0  0  0  0  0  0  0
  -14.2633  -40.6446  -10.3893 C   0  0  1  0  0  0  0  0  0  0  0  0
  -13.6376  -39.4097   -9.8353 C   0  0  0  0  0  0  0  0  0  0  0  0
  -15.5171  -40.4421  -11.1294 C   0  0  0  0  0  0  0  0  0  0  0  0
  -15.8211  -41.3231  -12.0146 O   0  0  0  0  0  0  0  0  0  0  0  0
  -16.3964  -39.3425  -10.9224 N   0  0  0  0  0  0  0  0  0  0  0  0
  -19.2137  -40.2672   -6.4278 C   0  0  0  0  0  0  0  0  0  0  0  0
  -19.7591  -39.4654   -5.4199 C   0  0  0  0  0  0  0  0  0  0  0  0
  -20.9627  -39.8199   -4.8739 C   0  0  0  0  0  0  0  0  0  0  0  0
  1  2  1  0
  2  3  1  0
  2  4  1  0
  4  5  2  0
  5  6  1  0
  6  7  1  0
  7  8  1  0
  8  9  1  0
  9 10  1  0
 10 11  1  1
 10 12  1  0
 12 13  1  6
 13 14  1  0
 14 15  1  6
 14 16  1  0
 16 17  1  0
 17 18  1  0
 18 19  1  0
 19 20  1  0
 20 21  1  0
 21 22  1  6
 21 23  1  0
 23 24  1  0
 24 25  1  0
 25 26  2  0
 25 27  1  0
 27 28  1  0
 27 29  1  0
 29 30  1  6
 29 31  1  0
 31 32  2  0
 31 33  1  0
  6 34  2  0
 34 35  1  0
 35 36  2  0
 33 12  1  0
 36  4  1  0
M  END
$$$$
