
     RDKit          3D

 36 37  0  0  0  0  0  0  0  0999 V2000
  -11.8803  -35.5058  -13.2338 C   0  0  0  0  0  0  0  0  0  0  0  0
  -13.1786  -34.9020  -12.7553 C   0  0  0  0  0  0  0  0  0  0  0  0
  -12.9069  -33.7967  -11.7471 C   0  0  0  0  0  0  0  0  0  0  0  0
  -14.0737  -35.9081  -12.1508 C   0  0  0  0  0  0  0  0  0  0  0  0
  -13.5760  -36.8089  -11.2133 C   0  0  0  0  0  0  0  0  0  0  0  0
  -14.4190  -37.7445  -10.6565 C   0  0  0  0  0  0  0  0  0  0  0  0
  -13.8822  -38.7198   -9.6451 C   0  0  0  0  0  0  0  0  0  0  0  0
  -14.7126  -38.6288   -8.5003 N   0  0  0  0  0  0  0  0  0  0  0  0
  -16.0700  -38.9703   -8.6177 C   0  0  0  0  0  0  0  0  0  0  0  0
  -16.3016  -40.4497   -8.7780 C   0  0  1  0  0  0  0  0  0  0  0  0
  -15.4739  -41.1324   -7.9002 O   0  0  0  0  0  0  0  0  0  0  0  0
  -17.7686  -40.7944   -8.4572 C   0  0  2  0  0  0  0  0  0  0  0  0
  -18.6445  -39.7134   -8.9092 C   0  0  0  0  0  0  0  0  0  0  0  0
  -18.7680  -38.4352   -8.2320 C   0  0  2  0  0  0  0  0  0  0  0  0
  -18.3337  -38.2749   -6.8160 C   0  0  0  0  0  0  0  0  0  0  0  0
  -20.1026  -37.7493   -8.3630 C   0  0  0  0  0  0  0  0  0  0  0  0
  -21.3206  -38.5162   -8.1020 C   0  0  0  0  0  0  0  0  0  0  0  0
  -21.7374  -38.6279   -6.6375 C   0  0  0  0  0  0  0  0  0  0  0  0
  -21.4985  -40.0379   -6.1035 C   0  0  0  0  0  0  0  0  0  0  0  0
  -22.7377  -40.8016   -5.8127 C   0  0  0  0  0  0  0  0  0  0  0  0
  -22.7492  -42.1850   -6.4219 C   0  0  2  0  0  0  0  0  0  0  0  0
  -24.2316  -42.5036   -6.6772 C   0  0  0  0  0  0  0  0  0  0  0  0
  -22.2243  -43.2631   -5.5449 C   0  0  0  0  0  0  0  0  0  0  0  0
  -20.7480  -43.3874   -5.4361 C   0  0  0  0  0  0  0  0  0  0  0  0
  -20.2164  -44.6977   -5.9326 C   0  0  0  0  0  0  0  0  0  0  0  0
  -20.8797  -45.7168   -5.6118 O   0  0  0  0  0  0  0  0  0  0  0  0
  -19.0612  -44.8521   -6.7082 N   0  0  0  0  0  0  0  0  0  0  0  0
  -18.2848  -46.0766   -6.6192 C   0  0  0  0  0  0  0  0  0  0  0  0
  -18.5725  -43.8168   -7.6341 C   0  0  1  0  0  0  0  0  0  0  0  0
  -19.7479  -43.3742   -8.4378 C   0  0  0  0  0  0  0  0  0  0  0  0
  -17.9074  -42.7646   -6.8523 C   0  0  0  0  0  0  0  0  0  0  0  0
  -17.2569  -43.1365   -5.8079 O   0  0  0  0  0  0  0  0  0  0  0  0
  -17.9447  -41.3812   -7.1835 N   0  0  0  0  0  0  0  0  0  0  0  0
  -15.7461  -37.8138  -11.0029 C   0  0  0  0  0  0  0  0  0  0  0  0
  -16.2470  -36.9091  -11.9445 C   0  0  0  0  0  0  0  0  0  0  0  0
  -15.3968  -35.9854  -12.4889 C   0  0  0  0  0  0  0  0  0  0  0  0
  1  2  1  0
  2  3  1  0
  2  4  1  0
  4  5  2  0
  5  6  1  0
  6  7  1  0
  7  8  1  0
  8  9  1  0
  9 10  1  0
 10 11  1  1
 10 12  1  0
 12 13  1  1
 13 14  1  0
 14 15  1  1
 14 16  1  0
 16 17  1  0
 17 18  1  0
 18 19  1  0
 19 20  1  0
 20 21  1  0
 21 22  1  1
 21 23  1  0
 23 24  1  0
 24 25  1  0
 25 26  2  0
 25 27  1  0
 27 28  1  0
 27 29  1  0
 29 30  1  1
 29 31  1  0
 31 32  2  0
 31 33  1  0
  6 34  2  0
 34 35  1  0
 35 36  2  0
 33 12  1  0
 36  4  1  0
M  END
$$$$
