
     RDKit          3D

 36 37  0  0  0  0  0  0  0  0999 V2000
  -15.0322  -34.0352  -13.0283 C   0  0  0  0  0  0  0  0  0  0  0  0
  -15.4341  -35.1551  -12.0993 C   0  0  0  0  0  0  0  0  0  0  0  0
  -16.1168  -34.5950  -10.8614 C   0  0  0  0  0  0  0  0  0  0  0  0
  -14.2826  -35.9838  -11.6917 C   0  0  0  0  0  0  0  0  0  0  0  0
  -14.4754  -37.3147  -11.3316 C   0  0  0  0  0  0  0  0  0  0  0  0
  -13.3948  -38.0787  -10.9514 C   0  0  0  0  0  0  0  0  0  0  0  0
  -13.6020  -39.5162  -10.5601 C   0  0  0  0  0  0  0  0  0  0  0  0
  -14.2715  -39.5134   -9.3111 N   0  0  0  0  0  0  0  0  0  0  0  0
  -15.6758  -39.4913   -9.2939 C   0  0  0  0  0  0  0  0  0  0  0  0
  -16.2570  -39.5673   -7.9067 C   0  0  1  0  0  0  0  0  0  0  0  0
  -16.4436  -38.2806   -7.4258 O   0  0  0  0  0  0  0  0  0  0  0  0
  -17.6153  -40.2937   -7.9401 C   0  0  2  0  0  0  0  0  0  0  0  0
  -18.6982  -39.3191   -8.0724 C   0  0  0  0  0  0  0  0  0  0  0  0
  -19.1521  -38.4621   -6.9921 C   0  0  2  0  0  0  0  0  0  0  0  0
  -18.8370  -38.7887   -5.5731 C   0  0  0  0  0  0  0  0  0  0  0  0
  -20.6027  -38.0593   -7.0390 C   0  0  0  0  0  0  0  0  0  0  0  0
  -21.6170  -39.0920   -7.2503 C   0  0  0  0  0  0  0  0  0  0  0  0
  -22.0662  -39.8506   -6.0039 C   0  0  0  0  0  0  0  0  0  0  0  0
  -21.5281  -41.2791   -6.0054 C   0  0  0  0  0  0  0  0  0  0  0  0
  -22.5652  -42.3248   -6.1912 C   0  0  0  0  0  0  0  0  0  0  0  0
  -22.2209  -43.3298   -7.2665 C   0  0  2  0  0  0  0  0  0  0  0  0
  -23.5723  -43.8094   -7.8214 C   0  0  0  0  0  0  0  0  0  0  0  0
  -21.5000  -44.5385   -6.7907 C   0  0  0  0  0  0  0  0  0  0  0  0
  -20.0430  -44.4001   -6.5360 C   0  0  0  0  0  0  0  0  0  0  0  0
  -19.1943  -45.2760   -7.4068 C   0  0  0  0  0  0  0  0  0  0  0  0
  -19.6136  -46.4487   -7.5816 O   0  0  0  0  0  0  0  0  0  0  0  0
  -17.9990  -44.8808   -8.0192 N   0  0  0  0  0  0  0  0  0  0  0  0
  -16.9612  -45.8613   -8.2871 C   0  0  0  0  0  0  0  0  0  0  0  0
  -17.7236  -43.4904   -8.4178 C   0  0  1  0  0  0  0  0  0  0  0  0
  -18.9297  -43.0101   -9.1513 C   0  0  0  0  0  0  0  0  0  0  0  0
  -17.3638  -42.7211   -7.2180 C   0  0  0  0  0  0  0  0  0  0  0  0
  -16.6955  -43.3365   -6.3087 O   0  0  0  0  0  0  0  0  0  0  0  0
  -17.7098  -41.3561   -7.0128 N   0  0  0  0  0  0  0  0  0  0  0  0
  -12.1235  -37.5605  -10.9177 C   0  0  0  0  0  0  0  0  0  0  0  0
  -11.9288  -36.2236  -11.2794 C   0  0  0  0  0  0  0  0  0  0  0  0
  -13.0126  -35.4773  -11.6547 C   0  0  0  0  0  0  0  0  0  0  0  0
  1  2  1  0
  2  3  1  0
  2  4  1  0
  4  5  2  0
  5  6  1  0
  6  7  1  0
  7  8  1  0
  8  9  1  0
  9 10  1  0
 10 11  1  6
 10 12  1  0
 12 13  1  1
 13 14  1  0
 14 15  1  1
 14 16  1  0
 16 17  1  0
 17 18  1  0
 18 19  1  0
 19 20  1  0
 20 21  1  0
 21 22  1  1
 21 23  1  0
 23 24  1  0
 24 25  1  0
 25 26  2  0
 25 27  1  0
 27 28  1  0
 27 29  1  0
 29 30  1  1
 29 31  1  0
 31 32  2  0
 31 33  1  0
  6 34  2  0
 34 35  1  0
 35 36  2  0
 33 12  1  0
 36  4  1  0
M  END
$$$$
