
     RDKit          3D

 36 37  0  0  0  0  0  0  0  0999 V2000
  -12.0587  -40.9882  -13.8502 C   0  0  0  0  0  0  0  0  0  0  0  0
  -12.8748  -41.2423  -12.6060 C   0  0  0  0  0  0  0  0  0  0  0  0
  -13.9480  -42.2835  -12.8819 C   0  0  0  0  0  0  0  0  0  0  0  0
  -13.5064  -40.0116  -12.0907 C   0  0  0  0  0  0  0  0  0  0  0  0
  -13.4923  -39.7411  -10.7252 C   0  0  0  0  0  0  0  0  0  0  0  0
  -14.0856  -38.5911  -10.2546 C   0  0  0  0  0  0  0  0  0  0  0  0
  -14.0729  -38.2985   -8.7793 C   0  0  0  0  0  0  0  0  0  0  0  0
  -14.0336  -39.5468   -8.1095 N   0  0  0  0  0  0  0  0  0  0  0  0
  -15.1947  -40.0100   -7.4689 C   0  0  0  0  0  0  0  0  0  0  0  0
  -16.2778  -38.9684   -7.3702 C   0  0  1  0  0  0  0  0  0  0  0  0
  -16.0894  -38.0270   -8.3702 O   0  0  0  0  0  0  0  0  0  0  0  0
  -17.6609  -39.6231   -7.5497 C   0  0  2  0  0  0  0  0  0  0  0  0
  -18.6376  -38.6172   -7.9671 C   0  0  0  0  0  0  0  0  0  0  0  0
  -19.1971  -37.6147   -7.0786 C   0  0  2  0  0  0  0  0  0  0  0  0
  -19.1365  -37.7843   -5.5997 C   0  0  0  0  0  0  0  0  0  0  0  0
  -20.5896  -37.1468   -7.4109 C   0  0  0  0  0  0  0  0  0  0  0  0
  -21.6270  -38.1441   -7.6737 C   0  0  0  0  0  0  0  0  0  0  0  0
  -22.3218  -38.7236   -6.4439 C   0  0  0  0  0  0  0  0  0  0  0  0
  -21.8920  -40.1677   -6.1985 C   0  0  0  0  0  0  0  0  0  0  0  0
  -22.9568  -41.1736   -6.4386 C   0  0  0  0  0  0  0  0  0  0  0  0
  -22.5164  -42.3167   -7.3242 C   0  0  2  0  0  0  0  0  0  0  0  0
  -23.7921  -42.7896   -8.0407 C   0  0  0  0  0  0  0  0  0  0  0  0
  -21.9675  -43.4948   -6.6048 C   0  0  0  0  0  0  0  0  0  0  0  0
  -20.5638  -43.4016   -6.1274 C   0  0  0  0  0  0  0  0  0  0  0  0
  -19.6505  -44.4180   -6.7427 C   0  0  0  0  0  0  0  0  0  0  0  0
  -20.1177  -45.5802   -6.8549 O   0  0  0  0  0  0  0  0  0  0  0  0
  -18.3479  -44.1608   -7.1867 N   0  0  0  0  0  0  0  0  0  0  0  0
  -17.3520  -45.2182   -7.1683 C   0  0  0  0  0  0  0  0  0  0  0  0
  -17.9154  -42.8443   -7.6842 C   0  0  1  0  0  0  0  0  0  0  0  0
  -18.9522  -42.3943   -8.6570 C   0  0  0  0  0  0  0  0  0  0  0  0
  -17.6989  -41.9559   -6.5332 C   0  0  0  0  0  0  0  0  0  0  0  0
  -17.2293  -42.4912   -5.4631 O   0  0  0  0  0  0  0  0  0  0  0  0
  -17.9767  -40.5603   -6.5400 N   0  0  0  0  0  0  0  0  0  0  0  0
  -14.6949  -37.6976  -11.1010 C   0  0  0  0  0  0  0  0  0  0  0  0
  -14.7095  -37.9685  -12.4731 C   0  0  0  0  0  0  0  0  0  0  0  0
  -14.1157  -39.1154  -12.9253 C   0  0  0  0  0  0  0  0  0  0  0  0
  1  2  1  0
  2  3  1  0
  2  4  1  0
  4  5  2  0
  5  6  1  0
  6  7  1  0
  7  8  1  0
  8  9  1  0
  9 10  1  0
 10 11  1  6
 10 12  1  0
 12 13  1  1
 13 14  1  0
 14 15  1  1
 14 16  1  0
 16 17  1  0
 17 18  1  0
 18 19  1  0
 19 20  1  0
 20 21  1  0
 21 22  1  1
 21 23  1  0
 23 24  1  0
 24 25  1  0
 25 26  2  0
 25 27  1  0
 27 28  1  0
 27 29  1  0
 29 30  1  6
 29 31  1  0
 31 32  2  0
 31 33  1  0
  6 34  2  0
 34 35  1  0
 35 36  2  0
 33 12  1  0
 36  4  1  0
M  END
$$$$
