
     RDKit          3D

 36 37  0  0  0  0  0  0  0  0999 V2000
  -14.3862  -33.8893  -10.3497 C   0  0  0  0  0  0  0  0  0  0  0  0
  -15.1602  -34.8933  -11.1692 C   0  0  0  0  0  0  0  0  0  0  0  0
  -16.3351  -35.4340  -10.3696 C   0  0  0  0  0  0  0  0  0  0  0  0
  -14.3155  -36.0166  -11.6204 C   0  0  0  0  0  0  0  0  0  0  0  0
  -14.5327  -37.2965  -11.1177 C   0  0  0  0  0  0  0  0  0  0  0  0
  -13.7382  -38.3373  -11.5438 C   0  0  0  0  0  0  0  0  0  0  0  0
  -13.9702  -39.7203  -11.0000 C   0  0  0  0  0  0  0  0  0  0  0  0
  -14.5825  -39.5692   -9.7308 N   0  0  0  0  0  0  0  0  0  0  0  0
  -15.9786  -39.6882   -9.6324 C   0  0  0  0  0  0  0  0  0  0  0  0
  -16.4735  -39.7513   -8.2115 C   0  0  1  0  0  0  0  0  0  0  0  0
  -16.5215  -38.4661   -7.6941 O   0  0  0  0  0  0  0  0  0  0  0  0
  -17.8866  -40.3638   -8.1691 C   0  0  2  0  0  0  0  0  0  0  0  0
  -18.8864  -39.3275   -8.4269 C   0  0  0  0  0  0  0  0  0  0  0  0
  -19.2676  -38.3126   -7.4613 C   0  0  2  0  0  0  0  0  0  0  0  0
  -18.9784  -38.4903   -6.0107 C   0  0  0  0  0  0  0  0  0  0  0  0
  -20.6805  -37.8019   -7.5688 C   0  0  0  0  0  0  0  0  0  0  0  0
  -21.7759  -38.7668   -7.6633 C   0  0  0  0  0  0  0  0  0  0  0  0
  -22.2841  -39.3306   -6.3386 C   0  0  0  0  0  0  0  0  0  0  0  0
  -21.8644  -40.7879   -6.1638 C   0  0  0  0  0  0  0  0  0  0  0  0
  -22.9837  -41.7606   -6.2315 C   0  0  0  0  0  0  0  0  0  0  0  0
  -22.7238  -42.9125   -7.1752 C   0  0  2  0  0  0  0  0  0  0  0  0
  -24.1106  -43.3442   -7.6801 C   0  0  0  0  0  0  0  0  0  0  0  0
  -22.1035  -44.1096   -6.5514 C   0  0  0  0  0  0  0  0  0  0  0  0
  -20.6397  -44.0603   -6.3026 C   0  0  0  0  0  0  0  0  0  0  0  0
  -19.8665  -45.1008   -7.0544 C   0  0  0  0  0  0  0  0  0  0  0  0
  -20.3804  -46.2480   -7.0906 O   0  0  0  0  0  0  0  0  0  0  0  0
  -18.6436  -44.8805   -7.6995 N   0  0  0  0  0  0  0  0  0  0  0  0
  -17.6897  -45.9672   -7.8387 C   0  0  0  0  0  0  0  0  0  0  0  0
  -18.2561  -43.5754   -8.2600 C   0  0  1  0  0  0  0  0  0  0  0  0
  -19.4199  -43.0906   -9.0562 C   0  0  0  0  0  0  0  0  0  0  0  0
  -17.8332  -42.6988   -7.1583 C   0  0  0  0  0  0  0  0  0  0  0  0
  -17.2162  -43.2524   -6.1759 O   0  0  0  0  0  0  0  0  0  0  0  0
  -18.0664  -41.2955   -7.1216 N   0  0  0  0  0  0  0  0  0  0  0  0
  -12.7308  -38.1461  -12.4574 C   0  0  0  0  0  0  0  0  0  0  0  0
  -12.5121  -36.8606  -12.9631 C   0  0  0  0  0  0  0  0  0  0  0  0
  -13.3098  -35.8368  -12.5298 C   0  0  0  0  0  0  0  0  0  0  0  0
  1  2  1  0
  2  3  1  0
  2  4  1  0
  4  5  2  0
  5  6  1  0
  6  7  1  0
  7  8  1  0
  8  9  1  0
  9 10  1  0
 10 11  1  6
 10 12  1  0
 12 13  1  1
 13 14  1  0
 14 15  1  1
 14 16  1  0
 16 17  1  0
 17 18  1  0
 18 19  1  0
 19 20  1  0
 20 21  1  0
 21 22  1  1
 21 23  1  0
 23 24  1  0
 24 25  1  0
 25 26  2  0
 25 27  1  0
 27 28  1  0
 27 29  1  0
 29 30  1  1
 29 31  1  0
 31 32  2  0
 31 33  1  0
  6 34  2  0
 34 35  1  0
 35 36  2  0
 33 12  1  0
 36  4  1  0
M  END
$$$$
