
     RDKit          3D

 36 37  0  0  0  0  0  0  0  0999 V2000
  -22.8359  -37.5554   -7.1846 C   0  0  0  0  0  0  0  0  0  0  0  0
  -22.9138  -39.0402   -7.4452 C   0  0  0  0  0  0  0  0  0  0  0  0
  -23.2886  -39.7809   -6.1713 C   0  0  0  0  0  0  0  0  0  0  0  0
  -21.6464  -39.5824   -7.9731 C   0  0  0  0  0  0  0  0  0  0  0  0
  -20.5573  -39.7584   -7.1239 C   0  0  0  0  0  0  0  0  0  0  0  0
  -19.3790  -40.2634   -7.6265 C   0  0  0  0  0  0  0  0  0  0  0  0
  -18.2009  -40.4521   -6.7107 C   0  0  0  0  0  0  0  0  0  0  0  0
  -17.3382  -39.3460   -6.9118 N   0  0  0  0  0  0  0  0  0  0  0  0
  -16.8123  -39.1200   -8.1945 C   0  0  0  0  0  0  0  0  0  0  0  0
  -15.6861  -38.1203   -8.2102 C   0  0  1  0  0  0  0  0  0  0  0  0
  -15.1037  -38.0787   -6.9530 O   0  0  0  0  0  0  0  0  0  0  0  0
  -14.6222  -38.5365   -9.2440 C   0  0  2  0  0  0  0  0  0  0  0  0
  -13.5237  -37.5704   -9.2447 C   0  0  0  0  0  0  0  0  0  0  0  0
  -13.6125  -36.2445   -9.8292 C   0  0  2  0  0  0  0  0  0  0  0  0
  -14.6731  -35.9162  -10.8226 C   0  0  0  0  0  0  0  0  0  0  0  0
  -12.3232  -35.6722  -10.3572 C   0  0  0  0  0  0  0  0  0  0  0  0
  -11.4906  -36.4955  -11.2341 C   0  0  0  0  0  0  0  0  0  0  0  0
  -11.8735  -36.4935  -12.7120 C   0  0  0  0  0  0  0  0  0  0  0  0
  -12.5014  -37.8240  -13.1195 C   0  0  0  0  0  0  0  0  0  0  0  0
  -11.6650  -38.6427  -14.0325 C   0  0  0  0  0  0  0  0  0  0  0  0
  -11.5057  -40.0760  -13.5799 C   0  0  2  0  0  0  0  0  0  0  0  0
  -10.1388  -40.5237  -14.1236 C   0  0  0  0  0  0  0  0  0  0  0  0
  -12.5134  -41.0231  -14.1225 C   0  0  0  0  0  0  0  0  0  0  0  0
  -13.8513  -41.0299  -13.4768 C   0  0  0  0  0  0  0  0  0  0  0  0
  -14.2069  -42.3407  -12.8436 C   0  0  0  0  0  0  0  0  0  0  0  0
  -13.9092  -43.3687  -13.5040 O   0  0  0  0  0  0  0  0  0  0  0  0
  -14.8316  -42.4867  -11.5992 N   0  0  0  0  0  0  0  0  0  0  0  0
  -15.6799  -43.6378  -11.3427 C   0  0  0  0  0  0  0  0  0  0  0  0
  -14.6762  -41.5142  -10.5047 C   0  0  1  0  0  0  0  0  0  0  0  0
  -13.2158  -41.2376  -10.3842 C   0  0  0  0  0  0  0  0  0  0  0  0
  -15.5205  -40.3458  -10.7920 C   0  0  0  0  0  0  0  0  0  0  0  0
  -16.6413  -40.5664  -11.3815 O   0  0  0  0  0  0  0  0  0  0  0  0
  -15.1699  -39.0075  -10.4588 N   0  0  0  0  0  0  0  0  0  0  0  0
  -19.2479  -40.6006   -8.9513 C   0  0  0  0  0  0  0  0  0  0  0  0
  -20.3415  -40.4243   -9.8050 C   0  0  0  0  0  0  0  0  0  0  0  0
  -21.5055  -39.9214   -9.2907 C   0  0  0  0  0  0  0  0  0  0  0  0
  1  2  1  0
  2  3  1  0
  2  4  1  0
  4  5  2  0
  5  6  1  0
  6  7  1  0
  7  8  1  0
  8  9  1  0
  9 10  1  0
 10 11  1  1
 10 12  1  0
 12 13  1  6
 13 14  1  0
 14 15  1  6
 14 16  1  0
 16 17  1  0
 17 18  1  0
 18 19  1  0
 19 20  1  0
 20 21  1  0
 21 22  1  6
 21 23  1  0
 23 24  1  0
 24 25  1  0
 25 26  2  0
 25 27  1  0
 27 28  1  0
 27 29  1  0
 29 30  1  6
 29 31  1  0
 31 32  2  0
 31 33  1  0
  6 34  2  0
 34 35  1  0
 35 36  2  0
 33 12  1  0
 36  4  1  0
M  END
$$$$
