
     RDKit          3D

 36 37  0  0  0  0  0  0  0  0999 V2000
  -14.5746  -34.3154   -9.3388 C   0  0  0  0  0  0  0  0  0  0  0  0
  -14.5741  -34.7623  -10.7807 C   0  0  0  0  0  0  0  0  0  0  0  0
  -15.9966  -35.0117  -11.2566 C   0  0  0  0  0  0  0  0  0  0  0  0
  -13.7668  -35.9805  -10.9881 C   0  0  0  0  0  0  0  0  0  0  0  0
  -14.2004  -37.1990  -10.4728 C   0  0  0  0  0  0  0  0  0  0  0  0
  -13.4392  -38.3293  -10.6705 C   0  0  0  0  0  0  0  0  0  0  0  0
  -13.9053  -39.6460  -10.1125 C   0  0  0  0  0  0  0  0  0  0  0  0
  -14.2218  -39.4293   -8.7482 N   0  0  0  0  0  0  0  0  0  0  0  0
  -15.2908  -40.1402   -8.1784 C   0  0  0  0  0  0  0  0  0  0  0  0
  -16.3240  -39.2518   -7.5371 C   0  0  1  0  0  0  0  0  0  0  0  0
  -16.3174  -38.0210   -8.1749 O   0  0  0  0  0  0  0  0  0  0  0  0
  -17.7233  -39.8819   -7.6740 C   0  0  2  0  0  0  0  0  0  0  0  0
  -18.7203  -38.8359   -7.9020 C   0  0  0  0  0  0  0  0  0  0  0  0
  -19.1974  -37.9337   -6.8695 C   0  0  2  0  0  0  0  0  0  0  0  0
  -19.0209  -38.2609   -5.4268 C   0  0  0  0  0  0  0  0  0  0  0  0
  -20.6074  -37.4312   -7.0372 C   0  0  0  0  0  0  0  0  0  0  0  0
  -21.6721  -38.3933   -7.3208 C   0  0  0  0  0  0  0  0  0  0  0  0
  -22.2724  -39.1005   -6.1081 C   0  0  0  0  0  0  0  0  0  0  0  0
  -21.8385  -40.5631   -6.0535 C   0  0  0  0  0  0  0  0  0  0  0  0
  -22.9289  -41.5362   -6.3134 C   0  0  0  0  0  0  0  0  0  0  0  0
  -22.5716  -42.5782   -7.3485 C   0  0  2  0  0  0  0  0  0  0  0  0
  -23.9049  -42.9702   -8.0066 C   0  0  0  0  0  0  0  0  0  0  0  0
  -21.9787  -43.8274   -6.8053 C   0  0  0  0  0  0  0  0  0  0  0  0
  -20.5406  -43.7876   -6.4348 C   0  0  0  0  0  0  0  0  0  0  0  0
  -19.6892  -44.7333   -7.2263 C   0  0  0  0  0  0  0  0  0  0  0  0
  -20.1752  -45.8761   -7.4242 O   0  0  0  0  0  0  0  0  0  0  0  0
  -18.4237  -44.4315   -7.7434 N   0  0  0  0  0  0  0  0  0  0  0  0
  -17.4398  -45.4860   -7.9179 C   0  0  0  0  0  0  0  0  0  0  0  0
  -18.0193  -43.0698   -8.1307 C   0  0  1  0  0  0  0  0  0  0  0  0
  -19.1258  -42.5169   -8.9635 C   0  0  0  0  0  0  0  0  0  0  0  0
  -17.7031  -42.3102   -6.9126 C   0  0  0  0  0  0  0  0  0  0  0  0
  -17.1551  -42.9576   -5.9468 O   0  0  0  0  0  0  0  0  0  0  0  0
  -17.9669  -40.9215   -6.7480 N   0  0  0  0  0  0  0  0  0  0  0  0
  -12.2562  -38.2873  -11.3667 C   0  0  0  0  0  0  0  0  0  0  0  0
  -11.8200  -37.0637  -11.8849 C   0  0  0  0  0  0  0  0  0  0  0  0
  -12.5874  -35.9495  -11.6800 C   0  0  0  0  0  0  0  0  0  0  0  0
  1  2  1  0
  2  3  1  0
  2  4  1  0
  4  5  2  0
  5  6  1  0
  6  7  1  0
  7  8  1  0
  8  9  1  0
  9 10  1  0
 10 11  1  6
 10 12  1  0
 12 13  1  1
 13 14  1  0
 14 15  1  1
 14 16  1  0
 16 17  1  0
 17 18  1  0
 18 19  1  0
 19 20  1  0
 20 21  1  0
 21 22  1  1
 21 23  1  0
 23 24  1  0
 24 25  1  0
 25 26  2  0
 25 27  1  0
 27 28  1  0
 27 29  1  0
 29 30  1  1
 29 31  1  0
 31 32  2  0
 31 33  1  0
  6 34  2  0
 34 35  1  0
 35 36  2  0
 33 12  1  0
 36  4  1  0
M  END
$$$$
