
     RDKit          3D

 38 41  0  0  0  0  0  0  0  0999 V2000
  -18.8253  -47.1142  -10.3487 C   0  0  0  0  0  0  0  0  0  0  0  0
  -19.1823  -45.7497  -10.5720 O   0  0  0  0  0  0  0  0  0  0  0  0
  -18.1815  -44.8091  -10.3414 C   0  0  0  0  0  0  0  0  0  0  0  0
  -18.4501  -43.6449   -9.6685 C   0  0  0  0  0  0  0  0  0  0  0  0
  -17.4770  -42.6430   -9.3971 C   0  0  0  0  0  0  0  0  0  0  0  0
  -16.1874  -42.8547   -9.8303 C   0  0  0  0  0  0  0  0  0  0  0  0
  -15.9221  -44.0171  -10.5084 C   0  0  0  0  0  0  0  0  0  0  0  0
  -14.7329  -44.5056  -11.1661 N   0  0  0  0  0  0  0  0  0  0  0  0
  -13.9365  -43.8631  -12.2039 C   0  0  0  0  0  0  0  0  0  0  0  0
  -12.5285  -43.6045  -11.8603 C   0  0  0  0  0  0  0  0  0  0  0  0
  -12.0393  -42.2316  -11.6592 C   0  0  0  0  0  0  0  0  0  0  0  0
  -12.5812  -41.2337  -12.6087 C   0  0  0  0  0  0  0  0  0  0  0  0
  -13.3741  -40.1326  -11.9864 C   0  0  0  0  0  0  0  0  0  0  0  0
  -12.5727  -38.9774  -11.8257 C   0  0  0  0  0  0  0  0  0  0  0  0
  -12.9932  -37.8289  -11.2155 C   0  0  0  0  0  0  0  0  0  0  0  0
  -14.2862  -37.8823  -10.7556 C   0  0  0  0  0  0  0  0  0  0  0  0
  -15.1279  -39.0052  -10.8885 C   0  0  0  0  0  0  0  0  0  0  0  0
  -16.4309  -38.7228  -10.1961 C   0  0  0  0  0  0  0  0  0  0  0  0
  -16.6598  -39.4042   -8.9027 C   0  0  2  0  0  0  0  0  0  0  0  0
  -17.9370  -40.0979   -8.8640 N   0  0  0  0  0  0  0  0  0  0  0  0
  -18.1163  -41.5029   -8.7312 C   0  0  0  0  0  0  0  0  0  0  0  0
  -19.0467  -41.7511   -7.8278 O   0  0  0  0  0  0  0  0  0  0  0  0
  -16.7126  -38.3363   -7.7888 C   0  0  2  0  0  0  0  0  0  0  0  0
  -15.4661  -38.3056   -7.1497 O   0  0  0  0  0  0  0  0  0  0  0  0
  -17.8287  -38.6542   -6.8206 C   0  0  0  0  0  0  0  0  0  0  0  0
  -19.0751  -38.3238   -7.4127 N   0  0  0  0  0  0  0  0  0  0  0  0
  -19.9031  -39.3941   -7.8320 C   0  0  0  0  0  0  0  0  0  0  0  0
  -21.1254  -39.6197   -7.0357 C   0  0  0  0  0  0  0  0  0  0  0  0
  -22.3266  -39.0782   -7.4240 C   0  0  0  0  0  0  0  0  0  0  0  0
  -23.4490  -39.2956   -6.6686 C   0  0  0  0  0  0  0  0  0  0  0  0
  -23.3933  -40.0473   -5.5290 C   0  0  0  0  0  0  0  0  0  0  0  0
  -22.1723  -40.5960   -5.1370 C   0  0  0  0  0  0  0  0  0  0  0  0
  -21.0435  -40.3820   -5.8891 C   0  0  0  0  0  0  0  0  0  0  0  0
  -22.1063  -41.4107   -3.8960 C   0  0  0  0  0  0  0  0  0  0  0  0
  -20.8741  -42.3184   -3.9191 C   0  0  0  0  0  0  0  0  0  0  0  0
  -21.9804  -40.5421   -2.6626 C   0  0  0  0  0  0  0  0  0  0  0  0
  -14.6605  -40.1291  -11.5119 C   0  0  0  0  0  0  0  0  0  0  0  0
  -16.9345  -44.9488  -10.7343 N   0  0  0  0  0  0  0  0  0  0  0  0
  1  2  1  0
  2  3  1  0
  3  4  2  0
  4  5  1  0
  5  6  2  0
  6  7  1  0
  7  8  1  0
  8  9  1  0
  9 10  1  0
 10 11  1  0
 11 12  1  0
 12 13  1  0
 13 14  1  0
 14 15  2  0
 15 16  1  0
 16 17  2  0
 17 18  1  0
 19 18  1  6
 19 20  1  0
 20 21  1  0
 21 22  2  0
 19 23  1  0
 23 24  1  1
 23 25  1  0
 25 26  1  0
 26 27  1  0
 27 28  1  0
 28 29  2  0
 29 30  1  0
 30 31  2  0
 31 32  1  0
 32 33  2  0
 32 34  1  0
 34 35  1  0
 34 36  1  0
 17 37  1  0
  7 38  2  0
 21  5  1  0
 33 28  1  0
 37 13  2  0
 38  3  1  0
M  END
$$$$
