
     RDKit          3D

 38 41  0  0  0  0  0  0  0  0999 V2000
  -18.4267  -48.2526   -6.4919 C   0  0  0  0  0  0  0  0  0  0  0  0
  -17.7162  -47.2957   -7.2784 O   0  0  0  0  0  0  0  0  0  0  0  0
  -18.2960  -46.0334   -7.3783 C   0  0  0  0  0  0  0  0  0  0  0  0
  -17.5210  -44.9109   -7.5183 C   0  0  0  0  0  0  0  0  0  0  0  0
  -18.0460  -43.5930   -7.6274 C   0  0  0  0  0  0  0  0  0  0  0  0
  -19.4131  -43.4330   -7.5958 C   0  0  0  0  0  0  0  0  0  0  0  0
  -20.1864  -44.5564   -7.4497 C   0  0  0  0  0  0  0  0  0  0  0  0
  -21.6099  -44.7389   -7.2897 N   0  0  0  0  0  0  0  0  0  0  0  0
  -22.4985  -44.1480   -6.2970 C   0  0  0  0  0  0  0  0  0  0  0  0
  -23.5932  -43.3215   -6.8313 C   0  0  0  0  0  0  0  0  0  0  0  0
  -23.6032  -41.8630   -6.6376 C   0  0  0  0  0  0  0  0  0  0  0  0
  -23.1546  -41.4106   -5.3016 C   0  0  0  0  0  0  0  0  0  0  0  0
  -21.9377  -40.5460   -5.3012 C   0  0  0  0  0  0  0  0  0  0  0  0
  -22.3021  -39.1812   -5.2173 C   0  0  0  0  0  0  0  0  0  0  0  0
  -21.4141  -38.1437   -5.2721 C   0  0  0  0  0  0  0  0  0  0  0  0
  -20.1061  -38.5355   -5.4209 C   0  0  0  0  0  0  0  0  0  0  0  0
  -19.6875  -39.8786   -5.5096 C   0  0  0  0  0  0  0  0  0  0  0  0
  -18.2047  -39.9125   -5.7487 C   0  0  0  0  0  0  0  0  0  0  0  0
  -17.7576  -40.2681   -7.1137 C   0  0  2  0  0  0  0  0  0  0  0  0
  -16.7731  -41.3380   -7.1097 N   0  0  0  0  0  0  0  0  0  0  0  0
  -16.9437  -42.6270   -7.6870 C   0  0  0  0  0  0  0  0  0  0  0  0
  -15.8719  -42.9477   -8.3884 O   0  0  0  0  0  0  0  0  0  0  0  0
  -17.0600  -39.0395   -7.7365 C   0  0  2  0  0  0  0  0  0  0  0  0
  -17.9668  -37.9714   -7.7351 O   0  0  0  0  0  0  0  0  0  0  0  0
  -16.5859  -39.3675   -9.1336 C   0  0  0  0  0  0  0  0  0  0  0  0
  -15.4775  -40.2502   -9.0604 N   0  0  0  0  0  0  0  0  0  0  0  0
  -14.2430  -39.7932   -9.5840 C   0  0  0  0  0  0  0  0  0  0  0  0
  -14.3217  -38.9657  -10.8039 C   0  0  0  0  0  0  0  0  0  0  0  0
  -15.2840  -39.2053  -11.7543 C   0  0  0  0  0  0  0  0  0  0  0  0
  -15.3376  -38.4286  -12.8820 C   0  0  0  0  0  0  0  0  0  0  0  0
  -14.4446  -37.4132  -13.0778 C   0  0  0  0  0  0  0  0  0  0  0  0
  -13.4684  -37.1721  -12.1112 C   0  0  0  0  0  0  0  0  0  0  0  0
  -13.4089  -37.9465  -10.9788 C   0  0  0  0  0  0  0  0  0  0  0  0
  -12.4927  -36.0713  -12.3221 C   0  0  0  0  0  0  0  0  0  0  0  0
  -13.1513  -34.9119  -13.0738 C   0  0  0  0  0  0  0  0  0  0  0  0
  -11.9934  -35.5071  -11.0090 C   0  0  0  0  0  0  0  0  0  0  0  0
  -20.6158  -40.8807   -5.4446 C   0  0  0  0  0  0  0  0  0  0  0  0
  -19.5921  -45.8135   -7.3483 N   0  0  0  0  0  0  0  0  0  0  0  0
  1  2  1  0
  2  3  1  0
  3  4  2  0
  4  5  1  0
  5  6  2  0
  6  7  1  0
  7  8  1  0
  8  9  1  0
  9 10  1  0
 10 11  1  0
 11 12  1  0
 12 13  1  0
 13 14  1  0
 14 15  2  0
 15 16  1  0
 16 17  2  0
 17 18  1  0
 19 18  1  1
 19 20  1  0
 20 21  1  0
 21 22  2  0
 19 23  1  0
 23 24  1  6
 23 25  1  0
 25 26  1  0
 26 27  1  0
 27 28  1  0
 28 29  2  0
 29 30  1  0
 30 31  2  0
 31 32  1  0
 32 33  2  0
 32 34  1  0
 34 35  1  0
 34 36  1  0
 17 37  1  0
  7 38  2  0
 21  5  1  0
 33 28  1  0
 37 13  2  0
 38  3  1  0
M  END
$$$$
