
     RDKit          3D

 38 41  0  0  0  0  0  0  0  0999 V2000
  -15.5274  -46.3771  -11.3857 C   0  0  0  0  0  0  0  0  0  0  0  0
  -16.3605  -45.2187  -11.4432 O   0  0  0  0  0  0  0  0  0  0  0  0
  -15.7731  -44.0214  -11.0420 C   0  0  0  0  0  0  0  0  0  0  0  0
  -16.4675  -43.1157  -10.2817 C   0  0  0  0  0  0  0  0  0  0  0  0
  -15.9296  -41.8761   -9.8363 C   0  0  0  0  0  0  0  0  0  0  0  0
  -14.6336  -41.5673  -10.1837 C   0  0  0  0  0  0  0  0  0  0  0  0
  -13.9428  -42.4718  -10.9492 C   0  0  0  0  0  0  0  0  0  0  0  0
  -12.6323  -42.4283  -11.5544 N   0  0  0  0  0  0  0  0  0  0  0  0
  -12.0783  -41.4271  -12.4571 C   0  0  0  0  0  0  0  0  0  0  0  0
  -10.8714  -40.7335  -11.9782 C   0  0  0  0  0  0  0  0  0  0  0  0
  -10.9149  -39.3110  -11.6049 C   0  0  0  0  0  0  0  0  0  0  0  0
  -11.7401  -38.4608  -12.4921 C   0  0  0  0  0  0  0  0  0  0  0  0
  -12.8990  -37.7920  -11.8301 C   0  0  0  0  0  0  0  0  0  0  0  0
  -12.5717  -36.4571  -11.4932 C   0  0  0  0  0  0  0  0  0  0  0  0
  -13.3997  -35.6119  -10.8089 C   0  0  0  0  0  0  0  0  0  0  0  0
  -14.6049  -36.1713  -10.4613 C   0  0  0  0  0  0  0  0  0  0  0  0
  -14.9824  -37.4937  -10.7707 C   0  0  0  0  0  0  0  0  0  0  0  0
  -16.3265  -37.7727  -10.1604 C   0  0  0  0  0  0  0  0  0  0  0  0
  -16.3474  -38.6414   -8.9626 C   0  0  2  0  0  0  0  0  0  0  0  0
  -17.2917  -39.7389   -9.0944 N   0  0  0  0  0  0  0  0  0  0  0  0
  -16.9609  -41.1224   -9.1150 C   0  0  0  0  0  0  0  0  0  0  0  0
  -17.7757  -41.7884   -8.3177 O   0  0  0  0  0  0  0  0  0  0  0  0
  -16.8235  -37.8023   -7.7571 C   0  0  2  0  0  0  0  0  0  0  0  0
  -17.0366  -38.6676   -6.6759 O   0  0  0  0  0  0  0  0  0  0  0  0
  -18.0785  -37.0424   -8.1198 C   0  0  0  0  0  0  0  0  0  0  0  0
  -19.0502  -37.2233   -7.1019 N   0  0  0  0  0  0  0  0  0  0  0  0
  -20.3970  -37.3931   -7.5075 C   0  0  0  0  0  0  0  0  0  0  0  0
  -20.9012  -38.7804   -7.5199 C   0  0  0  0  0  0  0  0  0  0  0  0
  -21.0770  -39.4534   -8.7044 C   0  0  0  0  0  0  0  0  0  0  0  0
  -21.5504  -40.7393   -8.6948 C   0  0  0  0  0  0  0  0  0  0  0  0
  -21.8517  -41.3674   -7.5195 C   0  0  0  0  0  0  0  0  0  0  0  0
  -21.6724  -40.6818   -6.3181 C   0  0  0  0  0  0  0  0  0  0  0  0
  -21.1985  -39.3930   -6.3203 C   0  0  0  0  0  0  0  0  0  0  0  0
  -22.0028  -41.3598   -5.0378 C   0  0  0  0  0  0  0  0  0  0  0  0
  -23.5151  -41.5624   -4.9166 C   0  0  0  0  0  0  0  0  0  0  0  0
  -21.3744  -42.7345   -4.9543 C   0  0  0  0  0  0  0  0  0  0  0  0
  -14.1190  -38.2979  -11.4620 C   0  0  0  0  0  0  0  0  0  0  0  0
  -14.5443  -43.6655  -11.3457 N   0  0  0  0  0  0  0  0  0  0  0  0
  1  2  1  0
  2  3  1  0
  3  4  2  0
  4  5  1  0
  5  6  2  0
  6  7  1  0
  7  8  1  0
  8  9  1  0
  9 10  1  0
 10 11  1  0
 11 12  1  0
 12 13  1  0
 13 14  1  0
 14 15  2  0
 15 16  1  0
 16 17  2  0
 17 18  1  0
 19 18  1  6
 19 20  1  0
 20 21  1  0
 21 22  2  0
 19 23  1  0
 23 24  1  1
 23 25  1  0
 25 26  1  0
 26 27  1  0
 27 28  1  0
 28 29  2  0
 29 30  1  0
 30 31  2  0
 31 32  1  0
 32 33  2  0
 32 34  1  0
 34 35  1  0
 34 36  1  0
 17 37  1  0
  7 38  2  0
 21  5  1  0
 33 28  1  0
 37 13  2  0
 38  3  1  0
M  END
$$$$
