
     RDKit          3D

 38 41  0  0  0  0  0  0  0  0999 V2000
  -18.6529  -47.6729   -9.0211 C   0  0  0  0  0  0  0  0  0  0  0  0
  -17.8311  -46.5428   -9.3153 O   0  0  0  0  0  0  0  0  0  0  0  0
  -18.3543  -45.2989   -8.9709 C   0  0  0  0  0  0  0  0  0  0  0  0
  -17.5322  -44.2697   -8.5896 C   0  0  0  0  0  0  0  0  0  0  0  0
  -17.9980  -42.9752   -8.2268 C   0  0  0  0  0  0  0  0  0  0  0  0
  -19.3536  -42.7376   -8.2648 C   0  0  0  0  0  0  0  0  0  0  0  0
  -20.1746  -43.7701   -8.6407 C   0  0  0  0  0  0  0  0  0  0  0  0
  -21.6123  -43.8929   -8.6995 N   0  0  0  0  0  0  0  0  0  0  0  0
  -22.5904  -43.6624   -7.6439 C   0  0  0  0  0  0  0  0  0  0  0  0
  -23.5884  -42.6149   -7.9157 C   0  0  0  0  0  0  0  0  0  0  0  0
  -23.5735  -41.3454   -7.1720 C   0  0  0  0  0  0  0  0  0  0  0  0
  -23.2686  -41.4741   -5.7294 C   0  0  0  0  0  0  0  0  0  0  0  0
  -22.0326  -40.7691   -5.2779 C   0  0  0  0  0  0  0  0  0  0  0  0
  -22.3599  -39.5174   -4.7048 C   0  0  0  0  0  0  0  0  0  0  0  0
  -21.4383  -38.6076   -4.2677 C   0  0  0  0  0  0  0  0  0  0  0  0
  -20.1353  -39.0092   -4.4329 C   0  0  0  0  0  0  0  0  0  0  0  0
  -19.7530  -40.2432   -4.9968 C   0  0  0  0  0  0  0  0  0  0  0  0
  -18.2543  -40.2938   -5.0890 C   0  0  0  0  0  0  0  0  0  0  0  0
  -17.6635  -40.1321   -6.4361 C   0  0  2  0  0  0  0  0  0  0  0  0
  -16.7213  -41.1924   -6.7553 N   0  0  0  0  0  0  0  0  0  0  0  0
  -16.8655  -42.1454   -7.8017 C   0  0  0  0  0  0  0  0  0  0  0  0
  -15.7306  -42.2523   -8.4679 O   0  0  0  0  0  0  0  0  0  0  0  0
  -16.8589  -38.8146   -6.4633 C   0  0  2  0  0  0  0  0  0  0  0  0
  -17.7348  -37.7586   -6.1792 O   0  0  0  0  0  0  0  0  0  0  0  0
  -16.1949  -38.6423   -7.8099 C   0  0  0  0  0  0  0  0  0  0  0  0
  -14.9356  -39.2959   -7.8019 N   0  0  0  0  0  0  0  0  0  0  0  0
  -14.1327  -39.1809   -8.9634 C   0  0  0  0  0  0  0  0  0  0  0  0
  -14.8546  -39.1424  -10.2504 C   0  0  0  0  0  0  0  0  0  0  0  0
  -15.0651  -40.2919  -10.9723 C   0  0  0  0  0  0  0  0  0  0  0  0
  -15.7336  -40.2344  -12.1671 C   0  0  0  0  0  0  0  0  0  0  0  0
  -16.1978  -39.0456  -12.6551 C   0  0  0  0  0  0  0  0  0  0  0  0
  -15.9825  -37.8799  -11.9200 C   0  0  0  0  0  0  0  0  0  0  0  0
  -15.3133  -37.9301  -10.7221 C   0  0  0  0  0  0  0  0  0  0  0  0
  -16.4820  -36.5842  -12.4491 C   0  0  0  0  0  0  0  0  0  0  0  0
  -15.9704  -35.4250  -11.5904 C   0  0  0  0  0  0  0  0  0  0  0  0
  -15.9906  -36.3284  -13.8579 C   0  0  0  0  0  0  0  0  0  0  0  0
  -20.7146  -41.1214   -5.4146 C   0  0  0  0  0  0  0  0  0  0  0  0
  -19.6372  -45.0109   -8.9804 N   0  0  0  0  0  0  0  0  0  0  0  0
  1  2  1  0
  2  3  1  0
  3  4  2  0
  4  5  1  0
  5  6  2  0
  6  7  1  0
  7  8  1  0
  8  9  1  0
  9 10  1  0
 10 11  1  0
 11 12  1  0
 12 13  1  0
 13 14  1  0
 14 15  2  0
 15 16  1  0
 16 17  2  0
 17 18  1  0
 19 18  1  1
 19 20  1  0
 20 21  1  0
 21 22  2  0
 19 23  1  0
 23 24  1  6
 23 25  1  0
 25 26  1  0
 26 27  1  0
 27 28  1  0
 28 29  2  0
 29 30  1  0
 30 31  2  0
 31 32  1  0
 32 33  2  0
 32 34  1  0
 34 35  1  0
 34 36  1  0
 17 37  1  0
  7 38  2  0
 21  5  1  0
 33 28  1  0
 37 13  2  0
 38  3  1  0
M  END
$$$$
