
     RDKit          3D

 38 41  0  0  0  0  0  0  0  0999 V2000
  -19.8750  -40.3173   -1.6055 C   0  0  0  0  0  0  0  0  0  0  0  0
  -18.7568  -40.2983   -2.4935 O   0  0  0  0  0  0  0  0  0  0  0  0
  -19.0288  -40.5928   -3.8272 C   0  0  0  0  0  0  0  0  0  0  0  0
  -18.1165  -40.3110   -4.8114 C   0  0  0  0  0  0  0  0  0  0  0  0
  -18.3279  -40.5860   -6.1913 C   0  0  0  0  0  0  0  0  0  0  0  0
  -19.5159  -41.1744   -6.5625 C   0  0  0  0  0  0  0  0  0  0  0  0
  -20.4297  -41.4499   -5.5773 C   0  0  0  0  0  0  0  0  0  0  0  0
  -21.7777  -41.9660   -5.6226 N   0  0  0  0  0  0  0  0  0  0  0  0
  -22.9216  -41.4619   -6.3718 C   0  0  0  0  0  0  0  0  0  0  0  0
  -23.5115  -42.3977   -7.3432 C   0  0  0  0  0  0  0  0  0  0  0  0
  -23.3891  -42.1620   -8.7903 C   0  0  0  0  0  0  0  0  0  0  0  0
  -23.5397  -40.7490   -9.2045 C   0  0  0  0  0  0  0  0  0  0  0  0
  -22.3434  -40.1529   -9.8694 C   0  0  0  0  0  0  0  0  0  0  0  0
  -22.4954  -40.1810  -11.2760 C   0  0  0  0  0  0  0  0  0  0  0  0
  -21.5359  -39.7759  -12.1611 C   0  0  0  0  0  0  0  0  0  0  0  0
  -20.3809  -39.3295  -11.5668 C   0  0  0  0  0  0  0  0  0  0  0  0
  -20.1759  -39.2799  -10.1731 C   0  0  0  0  0  0  0  0  0  0  0  0
  -18.7725  -38.8172   -9.9027 C   0  0  0  0  0  0  0  0  0  0  0  0
  -17.8093  -39.8427   -9.4440 C   0  0  2  0  0  0  0  0  0  0  0  0
  -17.1098  -39.4397   -8.2348 N   0  0  0  0  0  0  0  0  0  0  0  0
  -17.1892  -40.0908   -6.9723 C   0  0  0  0  0  0  0  0  0  0  0  0
  -15.9774  -40.2398   -6.4696 O   0  0  0  0  0  0  0  0  0  0  0  0
  -16.7277  -40.0203  -10.5315 C   0  0  2  0  0  0  0  0  0  0  0  0
  -17.1085  -41.0835  -11.3608 O   0  0  0  0  0  0  0  0  0  0  0  0
  -15.3832  -40.2684   -9.8875 C   0  0  0  0  0  0  0  0  0  0  0  0
  -14.4166  -39.4060  -10.4663 N   0  0  0  0  0  0  0  0  0  0  0  0
  -14.3509  -38.0777   -9.9781 C   0  0  0  0  0  0  0  0  0  0  0  0
  -14.9417  -37.0379  -10.8434 C   0  0  0  0  0  0  0  0  0  0  0  0
  -14.8945  -37.1524  -12.2115 C   0  0  0  0  0  0  0  0  0  0  0  0
  -15.4449  -36.1741  -12.9974 C   0  0  0  0  0  0  0  0  0  0  0  0
  -16.0441  -35.0802  -12.4397 C   0  0  0  0  0  0  0  0  0  0  0  0
  -16.0906  -34.9664  -11.0503 C   0  0  0  0  0  0  0  0  0  0  0  0
  -15.5410  -35.9429  -10.2566 C   0  0  0  0  0  0  0  0  0  0  0  0
  -16.7377  -33.7762  -10.4395 C   0  0  0  0  0  0  0  0  0  0  0  0
  -17.6284  -34.1963   -9.2678 C   0  0  0  0  0  0  0  0  0  0  0  0
  -15.7160  -32.8089   -9.8809 C   0  0  0  0  0  0  0  0  0  0  0  0
  -21.1701  -39.6927   -9.3295 C   0  0  0  0  0  0  0  0  0  0  0  0
  -20.1449  -41.1474   -4.2464 N   0  0  0  0  0  0  0  0  0  0  0  0
  1  2  1  0
  2  3  1  0
  3  4  2  0
  4  5  1  0
  5  6  2  0
  6  7  1  0
  7  8  1  0
  8  9  1  0
  9 10  1  0
 10 11  1  0
 11 12  1  0
 12 13  1  0
 13 14  1  0
 14 15  2  0
 15 16  1  0
 16 17  2  0
 17 18  1  0
 19 18  1  6
 19 20  1  0
 20 21  1  0
 21 22  2  0
 19 23  1  0
 23 24  1  6
 23 25  1  0
 25 26  1  0
 26 27  1  0
 27 28  1  0
 28 29  2  0
 29 30  1  0
 30 31  2  0
 31 32  1  0
 32 33  2  0
 32 34  1  0
 34 35  1  0
 34 36  1  0
 17 37  1  0
  7 38  2  0
 21  5  1  0
 33 28  1  0
 37 13  2  0
 38  3  1  0
M  END
$$$$
