
     RDKit          3D

 38 41  0  0  0  0  0  0  0  0999 V2000
  -15.7056  -44.8752  -13.9608 C   0  0  0  0  0  0  0  0  0  0  0  0
  -15.8868  -44.6338  -12.5652 O   0  0  0  0  0  0  0  0  0  0  0  0
  -15.6431  -43.3328  -12.1319 C   0  0  0  0  0  0  0  0  0  0  0  0
  -16.0658  -42.9102  -10.8978 C   0  0  0  0  0  0  0  0  0  0  0  0
  -15.8499  -41.5980  -10.3919 C   0  0  0  0  0  0  0  0  0  0  0  0
  -15.1722  -40.6989  -11.1843 C   0  0  0  0  0  0  0  0  0  0  0  0
  -14.7555  -41.1218  -12.4208 C   0  0  0  0  0  0  0  0  0  0  0  0
  -14.1161  -40.4317  -13.5163 N   0  0  0  0  0  0  0  0  0  0  0  0
  -14.5496  -39.2260  -14.2109 C   0  0  0  0  0  0  0  0  0  0  0  0
  -13.6177  -38.0876  -14.1567 C   0  0  0  0  0  0  0  0  0  0  0  0
  -13.9451  -36.8788  -13.3845 C   0  0  0  0  0  0  0  0  0  0  0  0
  -15.3582  -36.4478  -13.4746 C   0  0  0  0  0  0  0  0  0  0  0  0
  -16.1026  -36.4427  -12.1806 C   0  0  0  0  0  0  0  0  0  0  0  0
  -16.1393  -35.1365  -11.6376 C   0  0  0  0  0  0  0  0  0  0  0  0
  -16.6836  -34.8238  -10.4234 C   0  0  0  0  0  0  0  0  0  0  0  0
  -17.2044  -35.9020   -9.7507 C   0  0  0  0  0  0  0  0  0  0  0  0
  -17.1948  -37.2225  -10.2438 C   0  0  0  0  0  0  0  0  0  0  0  0
  -17.7739  -38.1365   -9.2016 C   0  0  0  0  0  0  0  0  0  0  0  0
  -16.8212  -38.9988   -8.4677 C   0  0  2  0  0  0  0  0  0  0  0  0
  -17.2207  -40.3967   -8.4810 N   0  0  0  0  0  0  0  0  0  0  0  0
  -16.4950  -41.4630   -9.0814 C   0  0  0  0  0  0  0  0  0  0  0  0
  -16.4347  -42.4864   -8.2493 O   0  0  0  0  0  0  0  0  0  0  0  0
  -16.8095  -38.5655   -6.9858 C   0  0  2  0  0  0  0  0  0  0  0  0
  -15.7387  -37.6824   -6.7944 O   0  0  0  0  0  0  0  0  0  0  0  0
  -16.6979  -39.7800   -6.0932 C   0  0  0  0  0  0  0  0  0  0  0  0
  -17.6561  -40.7477   -6.4915 N   0  0  0  0  0  0  0  0  0  0  0  0
  -18.8733  -40.7975   -5.7685 C   0  0  0  0  0  0  0  0  0  0  0  0
  -20.1088  -40.6878   -6.5689 C   0  0  0  0  0  0  0  0  0  0  0  0
  -20.6839  -41.8022   -7.1295 C   0  0  0  0  0  0  0  0  0  0  0  0
  -21.8284  -41.6786   -7.8729 C   0  0  0  0  0  0  0  0  0  0  0  0
  -22.4111  -40.4581   -8.0665 C   0  0  0  0  0  0  0  0  0  0  0  0
  -21.8250  -39.3281   -7.4962 C   0  0  0  0  0  0  0  0  0  0  0  0
  -20.6781  -39.4446   -6.7502 C   0  0  0  0  0  0  0  0  0  0  0  0
  -22.4532  -37.9981   -7.7078 C   0  0  0  0  0  0  0  0  0  0  0  0
  -21.9646  -37.0037   -6.6517 C   0  0  0  0  0  0  0  0  0  0  0  0
  -22.0854  -37.4136   -9.0549 C   0  0  0  0  0  0  0  0  0  0  0  0
  -16.6420  -37.4821  -11.4674 C   0  0  0  0  0  0  0  0  0  0  0  0
  -15.0085  -42.4264  -12.8424 N   0  0  0  0  0  0  0  0  0  0  0  0
  1  2  1  0
  2  3  1  0
  3  4  2  0
  4  5  1  0
  5  6  2  0
  6  7  1  0
  7  8  1  0
  8  9  1  0
  9 10  1  0
 10 11  1  0
 11 12  1  0
 12 13  1  0
 13 14  1  0
 14 15  2  0
 15 16  1  0
 16 17  2  0
 17 18  1  0
 19 18  1  6
 19 20  1  0
 20 21  1  0
 21 22  2  0
 19 23  1  0
 23 24  1  6
 23 25  1  0
 25 26  1  0
 26 27  1  0
 27 28  1  0
 28 29  2  0
 29 30  1  0
 30 31  2  0
 31 32  1  0
 32 33  2  0
 32 34  1  0
 34 35  1  0
 34 36  1  0
 17 37  1  0
  7 38  2  0
 21  5  1  0
 33 28  1  0
 37 13  2  0
 38  3  1  0
M  END
$$$$
