
     RDKit          3D

 38 41  0  0  0  0  0  0  0  0999 V2000
  -18.0768  -48.0007   -7.4034 C   0  0  0  0  0  0  0  0  0  0  0  0
  -17.5253  -46.8279   -6.8038 O   0  0  0  0  0  0  0  0  0  0  0  0
  -18.1857  -45.6324   -7.0761 C   0  0  0  0  0  0  0  0  0  0  0  0
  -17.4847  -44.4767   -7.3069 C   0  0  0  0  0  0  0  0  0  0  0  0
  -18.0938  -43.2229   -7.5921 C   0  0  0  0  0  0  0  0  0  0  0  0
  -19.4684  -43.1649   -7.6449 C   0  0  0  0  0  0  0  0  0  0  0  0
  -20.1679  -44.3206   -7.4079 C   0  0  0  0  0  0  0  0  0  0  0  0
  -21.5819  -44.5920   -7.2965 N   0  0  0  0  0  0  0  0  0  0  0  0
  -22.5643  -43.9636   -6.4224 C   0  0  0  0  0  0  0  0  0  0  0  0
  -23.6825  -43.2874   -7.1003 C   0  0  0  0  0  0  0  0  0  0  0  0
  -23.8056  -41.8214   -7.0764 C   0  0  0  0  0  0  0  0  0  0  0  0
  -23.4659  -41.1904   -5.7813 C   0  0  0  0  0  0  0  0  0  0  0  0
  -22.3146  -40.2410   -5.8219 C   0  0  0  0  0  0  0  0  0  0  0  0
  -22.7781  -38.9071   -5.9133 C   0  0  0  0  0  0  0  0  0  0  0  0
  -21.9633  -37.8176   -6.0443 C   0  0  0  0  0  0  0  0  0  0  0  0
  -20.6248  -38.1229   -6.0840 C   0  0  0  0  0  0  0  0  0  0  0  0
  -20.1086  -39.4317   -5.9973 C   0  0  0  0  0  0  0  0  0  0  0  0
  -18.6160  -39.3791   -6.1593 C   0  0  0  0  0  0  0  0  0  0  0  0
  -18.0687  -39.8493   -7.4513 C   0  0  2  0  0  0  0  0  0  0  0  0
  -17.0134  -40.8341   -7.2768 N   0  0  0  0  0  0  0  0  0  0  0  0
  -17.0604  -42.1885   -7.7094 C   0  0  0  0  0  0  0  0  0  0  0  0
  -15.9309  -42.5027   -8.3169 O   0  0  0  0  0  0  0  0  0  0  0  0
  -17.4250  -38.6481   -8.1770 C   0  0  2  0  0  0  0  0  0  0  0  0
  -18.3794  -37.6263   -8.2677 O   0  0  0  0  0  0  0  0  0  0  0  0
  -16.9304  -39.0728   -9.5405 C   0  0  0  0  0  0  0  0  0  0  0  0
  -15.9036  -38.1908   -9.9655 N   0  0  0  0  0  0  0  0  0  0  0  0
  -14.5762  -38.4989   -9.5780 C   0  0  0  0  0  0  0  0  0  0  0  0
  -13.5885  -38.6025  -10.6702 C   0  0  0  0  0  0  0  0  0  0  0  0
  -12.6633  -39.6176  -10.6866 C   0  0  0  0  0  0  0  0  0  0  0  0
  -11.7519  -39.6936  -11.7071 C   0  0  0  0  0  0  0  0  0  0  0  0
  -11.7484  -38.7713  -12.7151 C   0  0  0  0  0  0  0  0  0  0  0  0
  -12.6890  -37.7415  -12.6959 C   0  0  0  0  0  0  0  0  0  0  0  0
  -13.6051  -37.6592  -11.6764 C   0  0  0  0  0  0  0  0  0  0  0  0
  -12.6861  -36.7339  -13.7881 C   0  0  0  0  0  0  0  0  0  0  0  0
  -11.6453  -35.6471  -13.5080 C   0  0  0  0  0  0  0  0  0  0  0  0
  -12.3172  -37.3530  -15.1194 C   0  0  0  0  0  0  0  0  0  0  0  0
  -20.9666  -40.4881   -5.8621 C   0  0  0  0  0  0  0  0  0  0  0  0
  -19.4936  -45.5098   -7.1341 N   0  0  0  0  0  0  0  0  0  0  0  0
  1  2  1  0
  2  3  1  0
  3  4  2  0
  4  5  1  0
  5  6  2  0
  6  7  1  0
  7  8  1  0
  8  9  1  0
  9 10  1  0
 10 11  1  0
 11 12  1  0
 12 13  1  0
 13 14  1  0
 14 15  2  0
 15 16  1  0
 16 17  2  0
 17 18  1  0
 19 18  1  1
 19 20  1  0
 20 21  1  0
 21 22  2  0
 19 23  1  0
 23 24  1  6
 23 25  1  0
 25 26  1  0
 26 27  1  0
 27 28  1  0
 28 29  2  0
 29 30  1  0
 30 31  2  0
 31 32  1  0
 32 33  2  0
 32 34  1  0
 34 35  1  0
 34 36  1  0
 17 37  1  0
  7 38  2  0
 21  5  1  0
 33 28  1  0
 37 13  2  0
 38  3  1  0
M  END
$$$$
