
     RDKit          3D

 38 41  0  0  0  0  0  0  0  0999 V2000
  -14.1853  -46.2170  -12.8685 C   0  0  0  0  0  0  0  0  0  0  0  0
  -14.8655  -45.6635  -11.7416 O   0  0  0  0  0  0  0  0  0  0  0  0
  -14.4592  -44.3918  -11.3449 C   0  0  0  0  0  0  0  0  0  0  0  0
  -15.2735  -43.5993  -10.5772 C   0  0  0  0  0  0  0  0  0  0  0  0
  -14.9220  -42.2932  -10.1358 C   0  0  0  0  0  0  0  0  0  0  0  0
  -13.6899  -41.7950  -10.4953 C   0  0  0  0  0  0  0  0  0  0  0  0
  -12.8794  -42.5868  -11.2682 C   0  0  0  0  0  0  0  0  0  0  0  0
  -11.5959  -42.3488  -11.8859 N   0  0  0  0  0  0  0  0  0  0  0  0
  -11.2060  -41.2767  -12.7930 C   0  0  0  0  0  0  0  0  0  0  0  0
  -10.1112  -40.4108  -12.3251 C   0  0  0  0  0  0  0  0  0  0  0  0
  -10.3626  -39.0105  -11.9500 C   0  0  0  0  0  0  0  0  0  0  0  0
  -11.3137  -38.2932  -12.8284 C   0  0  0  0  0  0  0  0  0  0  0  0
  -12.5529  -37.8041  -12.1548 C   0  0  0  0  0  0  0  0  0  0  0  0
  -12.4249  -36.4352  -11.8198 C   0  0  0  0  0  0  0  0  0  0  0  0
  -13.3629  -35.7225  -11.1267 C   0  0  0  0  0  0  0  0  0  0  0  0
  -14.4680  -36.4550  -10.7681 C   0  0  0  0  0  0  0  0  0  0  0  0
  -14.6472  -37.8190  -11.0751 C   0  0  0  0  0  0  0  0  0  0  0  0
  -15.9288  -38.2948  -10.4522 C   0  0  0  0  0  0  0  0  0  0  0  0
  -15.8085  -39.1563   -9.2551 C   0  0  2  0  0  0  0  0  0  0  0  0
  -16.5801  -40.3824   -9.3789 N   0  0  0  0  0  0  0  0  0  0  0  0
  -16.0470  -41.7011   -9.4040 C   0  0  0  0  0  0  0  0  0  0  0  0
  -16.7458  -42.4807   -8.5994 O   0  0  0  0  0  0  0  0  0  0  0  0
  -16.3927  -38.3970   -8.0443 C   0  0  2  0  0  0  0  0  0  0  0  0
  -15.3310  -37.9967   -7.2223 O   0  0  0  0  0  0  0  0  0  0  0  0
  -17.3703  -39.2799   -7.3033 C   0  0  0  0  0  0  0  0  0  0  0  0
  -18.2801  -39.8554   -8.2274 N   0  0  0  0  0  0  0  0  0  0  0  0
  -19.1132  -40.9010   -7.7587 C   0  0  0  0  0  0  0  0  0  0  0  0
  -20.5656  -40.6999   -7.9292 C   0  0  0  0  0  0  0  0  0  0  0  0
  -21.1905  -41.0507   -9.1011 C   0  0  0  0  0  0  0  0  0  0  0  0
  -22.5390  -40.8519   -9.2413 C   0  0  0  0  0  0  0  0  0  0  0  0
  -23.2772  -40.3077   -8.2284 C   0  0  0  0  0  0  0  0  0  0  0  0
  -22.6401  -39.9523   -7.0396 C   0  0  0  0  0  0  0  0  0  0  0  0
  -21.2891  -40.1487   -6.8923 C   0  0  0  0  0  0  0  0  0  0  0  0
  -23.4385  -39.3563   -5.9370 C   0  0  0  0  0  0  0  0  0  0  0  0
  -23.3350  -40.2194   -4.6771 C   0  0  0  0  0  0  0  0  0  0  0  0
  -22.9328  -37.9799   -5.5608 C   0  0  0  0  0  0  0  0  0  0  0  0
  -13.6803  -38.4860  -11.7754 C   0  0  0  0  0  0  0  0  0  0  0  0
  -13.3001  -43.8569  -11.6601 N   0  0  0  0  0  0  0  0  0  0  0  0
  1  2  1  0
  2  3  1  0
  3  4  2  0
  4  5  1  0
  5  6  2  0
  6  7  1  0
  7  8  1  0
  8  9  1  0
  9 10  1  0
 10 11  1  0
 11 12  1  0
 12 13  1  0
 13 14  1  0
 14 15  2  0
 15 16  1  0
 16 17  2  0
 17 18  1  0
 19 18  1  6
 19 20  1  0
 20 21  1  0
 21 22  2  0
 19 23  1  0
 23 24  1  1
 23 25  1  0
 25 26  1  0
 26 27  1  0
 27 28  1  0
 28 29  2  0
 29 30  1  0
 30 31  2  0
 31 32  1  0
 32 33  2  0
 32 34  1  0
 34 35  1  0
 34 36  1  0
 17 37  1  0
  7 38  2  0
 21  5  1  0
 33 28  1  0
 37 13  2  0
 38  3  1  0
M  END
$$$$
