
     RDKit          3D

 38 41  0  0  0  0  0  0  0  0999 V2000
  -21.0762  -45.3166   -3.0175 C   0  0  0  0  0  0  0  0  0  0  0  0
  -20.2150  -44.1787   -3.0694 O   0  0  0  0  0  0  0  0  0  0  0  0
  -20.3740  -43.3400   -4.1698 C   0  0  0  0  0  0  0  0  0  0  0  0
  -19.3048  -42.6679   -4.7040 C   0  0  0  0  0  0  0  0  0  0  0  0
  -19.3951  -41.7978   -5.8262 C   0  0  0  0  0  0  0  0  0  0  0  0
  -20.6268  -41.6225   -6.4156 C   0  0  0  0  0  0  0  0  0  0  0  0
  -21.6962  -42.2910   -5.8761 C   0  0  0  0  0  0  0  0  0  0  0  0
  -23.1080  -42.2654   -6.1788 N   0  0  0  0  0  0  0  0  0  0  0  0
  -24.0079  -41.1202   -6.2319 C   0  0  0  0  0  0  0  0  0  0  0  0
  -24.6619  -40.8815   -7.5289 C   0  0  0  0  0  0  0  0  0  0  0  0
  -24.3081  -39.7132   -8.3503 C   0  0  0  0  0  0  0  0  0  0  0  0
  -24.0891  -38.4624   -7.5897 C   0  0  0  0  0  0  0  0  0  0  0  0
  -22.7163  -37.8863   -7.6995 C   0  0  0  0  0  0  0  0  0  0  0  0
  -22.6912  -36.8515   -8.6644 C   0  0  0  0  0  0  0  0  0  0  0  0
  -21.5617  -36.1826   -9.0449 C   0  0  0  0  0  0  0  0  0  0  0  0
  -20.4215  -36.6030   -8.4049 C   0  0  0  0  0  0  0  0  0  0  0  0
  -20.3890  -37.6274   -7.4373 C   0  0  0  0  0  0  0  0  0  0  0  0
  -18.9639  -37.8636   -7.0247 C   0  0  0  0  0  0  0  0  0  0  0  0
  -18.3170  -39.0927   -7.5354 C   0  0  2  0  0  0  0  0  0  0  0  0
  -17.7049  -39.8749   -6.4737 N   0  0  0  0  0  0  0  0  0  0  0  0
  -18.0855  -41.1892   -6.0842 C   0  0  0  0  0  0  0  0  0  0  0  0
  -17.0103  -41.9428   -5.9450 O   0  0  0  0  0  0  0  0  0  0  0  0
  -17.1726  -38.6844   -8.4880 C   0  0  2  0  0  0  0  0  0  0  0  0
  -17.7366  -38.2804   -9.7052 O   0  0  0  0  0  0  0  0  0  0  0  0
  -16.2164  -39.8402   -8.6721 C   0  0  0  0  0  0  0  0  0  0  0  0
  -16.1426  -40.5876   -7.4683 N   0  0  0  0  0  0  0  0  0  0  0  0
  -15.9775  -41.9902   -7.5795 C   0  0  0  0  0  0  0  0  0  0  0  0
  -14.9486  -42.4493   -8.5332 C   0  0  0  0  0  0  0  0  0  0  0  0
  -15.2602  -43.3483   -9.5239 C   0  0  0  0  0  0  0  0  0  0  0  0
  -14.2895  -43.7655  -10.3966 C   0  0  0  0  0  0  0  0  0  0  0  0
  -13.0093  -43.2987  -10.2978 C   0  0  0  0  0  0  0  0  0  0  0  0
  -12.6955  -42.3859   -9.2909 C   0  0  0  0  0  0  0  0  0  0  0  0
  -13.6632  -41.9636   -8.4128 C   0  0  0  0  0  0  0  0  0  0  0  0
  -11.3034  -41.8788   -9.1772 C   0  0  0  0  0  0  0  0  0  0  0  0
  -10.3077  -43.0406   -9.2199 C   0  0  0  0  0  0  0  0  0  0  0  0
  -10.9466  -40.9612  -10.3272 C   0  0  0  0  0  0  0  0  0  0  0  0
  -21.5485  -38.2629   -7.0878 C   0  0  0  0  0  0  0  0  0  0  0  0
  -21.5227  -43.1255   -4.7728 N   0  0  0  0  0  0  0  0  0  0  0  0
  1  2  1  0
  2  3  1  0
  3  4  2  0
  4  5  1  0
  5  6  2  0
  6  7  1  0
  7  8  1  0
  8  9  1  0
  9 10  1  0
 10 11  1  0
 11 12  1  0
 12 13  1  0
 13 14  1  0
 14 15  2  0
 15 16  1  0
 16 17  2  0
 17 18  1  0
 19 18  1  1
 19 20  1  0
 20 21  1  0
 21 22  2  0
 19 23  1  0
 23 24  1  6
 23 25  1  0
 25 26  1  0
 26 27  1  0
 27 28  1  0
 28 29  2  0
 29 30  1  0
 30 31  2  0
 31 32  1  0
 32 33  2  0
 32 34  1  0
 34 35  1  0
 34 36  1  0
 17 37  1  0
  7 38  2  0
 21  5  1  0
 33 28  1  0
 37 13  2  0
 38  3  1  0
M  END
$$$$
