
     RDKit          3D

 38 41  0  0  0  0  0  0  0  0999 V2000
  -18.5151  -44.3481   -2.0565 C   0  0  0  0  0  0  0  0  0  0  0  0
  -18.4997  -45.0319   -3.3100 O   0  0  0  0  0  0  0  0  0  0  0  0
  -19.0643  -44.3513   -4.3859 C   0  0  0  0  0  0  0  0  0  0  0  0
  -18.2860  -43.8987   -5.4202 C   0  0  0  0  0  0  0  0  0  0  0  0
  -18.7959  -43.1989   -6.5492 C   0  0  0  0  0  0  0  0  0  0  0  0
  -20.1513  -42.9654   -6.6119 C   0  0  0  0  0  0  0  0  0  0  0  0
  -20.9272  -43.4137   -5.5734 C   0  0  0  0  0  0  0  0  0  0  0  0
  -22.3329  -43.2634   -5.2789 N   0  0  0  0  0  0  0  0  0  0  0  0
  -23.1159  -42.0387   -5.1733 C   0  0  0  0  0  0  0  0  0  0  0  0
  -24.2407  -41.9166   -6.1151 C   0  0  0  0  0  0  0  0  0  0  0  0
  -24.2075  -40.9330   -7.2089 C   0  0  0  0  0  0  0  0  0  0  0  0
  -23.6300  -39.6194   -6.8458 C   0  0  0  0  0  0  0  0  0  0  0  0
  -22.4034  -39.2351   -7.6048 C   0  0  0  0  0  0  0  0  0  0  0  0
  -22.7348  -38.3642   -8.6698 C   0  0  0  0  0  0  0  0  0  0  0  0
  -21.8377  -37.8993   -9.5902 C   0  0  0  0  0  0  0  0  0  0  0  0
  -20.5560  -38.3549   -9.4002 C   0  0  0  0  0  0  0  0  0  0  0  0
  -20.1707  -39.2221   -8.3579 C   0  0  0  0  0  0  0  0  0  0  0  0
  -18.7170  -39.5646   -8.5207 C   0  0  0  0  0  0  0  0  0  0  0  0
  -18.4037  -40.9242   -9.0137 C   0  0  2  0  0  0  0  0  0  0  0  0
  -17.4417  -41.6095   -8.1659 N   0  0  0  0  0  0  0  0  0  0  0  0
  -17.6871  -42.7967   -7.4214 C   0  0  0  0  0  0  0  0  0  0  0  0
  -16.6902  -43.6454   -7.5927 O   0  0  0  0  0  0  0  0  0  0  0  0
  -17.7452  -40.8013  -10.4048 C   0  0  2  0  0  0  0  0  0  0  0  0
  -16.8532  -41.8698  -10.5651 O   0  0  0  0  0  0  0  0  0  0  0  0
  -17.0462  -39.4671  -10.5296 C   0  0  0  0  0  0  0  0  0  0  0  0
  -16.0231  -39.3773   -9.5507 N   0  0  0  0  0  0  0  0  0  0  0  0
  -15.5009  -38.0910   -9.2680 C   0  0  0  0  0  0  0  0  0  0  0  0
  -15.5605  -37.1098  -10.3692 C   0  0  0  0  0  0  0  0  0  0  0  0
  -15.6334  -37.5247  -11.6766 C   0  0  0  0  0  0  0  0  0  0  0  0
  -15.6835  -36.5979  -12.6847 C   0  0  0  0  0  0  0  0  0  0  0  0
  -15.6626  -35.2597  -12.4095 C   0  0  0  0  0  0  0  0  0  0  0  0
  -15.5885  -34.8411  -11.0810 C   0  0  0  0  0  0  0  0  0  0  0  0
  -15.5379  -35.7644  -10.0658 C   0  0  0  0  0  0  0  0  0  0  0  0
  -15.5614  -33.3867  -10.7775 C   0  0  0  0  0  0  0  0  0  0  0  0
  -16.6688  -33.0290   -9.7832 C   0  0  0  0  0  0  0  0  0  0  0  0
  -14.2541  -32.9735  -10.1357 C   0  0  0  0  0  0  0  0  0  0  0  0
  -21.1064  -39.6552   -7.4594 C   0  0  0  0  0  0  0  0  0  0  0  0
  -20.3480  -44.0914   -4.5015 N   0  0  0  0  0  0  0  0  0  0  0  0
  1  2  1  0
  2  3  1  0
  3  4  2  0
  4  5  1  0
  5  6  2  0
  6  7  1  0
  7  8  1  0
  8  9  1  0
  9 10  1  0
 10 11  1  0
 11 12  1  0
 12 13  1  0
 13 14  1  0
 14 15  2  0
 15 16  1  0
 16 17  2  0
 17 18  1  0
 19 18  1  1
 19 20  1  0
 20 21  1  0
 21 22  2  0
 19 23  1  0
 23 24  1  1
 23 25  1  0
 25 26  1  0
 26 27  1  0
 27 28  1  0
 28 29  2  0
 29 30  1  0
 30 31  2  0
 31 32  1  0
 32 33  2  0
 32 34  1  0
 34 35  1  0
 34 36  1  0
 17 37  1  0
  7 38  2  0
 21  5  1  0
 33 28  1  0
 37 13  2  0
 38  3  1  0
M  END
$$$$
