
     RDKit          3D

 38 41  0  0  0  0  0  0  0  0999 V2000
  -19.2231  -48.2104   -6.7106 C   0  0  0  0  0  0  0  0  0  0  0  0
  -18.5698  -47.0904   -6.1124 O   0  0  0  0  0  0  0  0  0  0  0  0
  -18.9803  -45.8347   -6.5532 C   0  0  0  0  0  0  0  0  0  0  0  0
  -18.0668  -44.8454   -6.8124 C   0  0  0  0  0  0  0  0  0  0  0  0
  -18.4156  -43.5427   -7.2659 C   0  0  0  0  0  0  0  0  0  0  0  0
  -19.7482  -43.2573   -7.4615 C   0  0  0  0  0  0  0  0  0  0  0  0
  -20.6608  -44.2463   -7.1959 C   0  0  0  0  0  0  0  0  0  0  0  0
  -22.1048  -44.2601   -7.2040 N   0  0  0  0  0  0  0  0  0  0  0  0
  -23.0284  -43.3865   -6.4913 C   0  0  0  0  0  0  0  0  0  0  0  0
  -23.9467  -42.6038   -7.3347 C   0  0  0  0  0  0  0  0  0  0  0  0
  -23.8069  -41.1438   -7.4516 C   0  0  0  0  0  0  0  0  0  0  0  0
  -23.4692  -40.4490   -6.1890 C   0  0  0  0  0  0  0  0  0  0  0  0
  -22.1672  -39.7188   -6.1964 C   0  0  0  0  0  0  0  0  0  0  0  0
  -22.3750  -38.3422   -6.4502 C   0  0  0  0  0  0  0  0  0  0  0  0
  -21.3702  -37.4268   -6.5933 C   0  0  0  0  0  0  0  0  0  0  0  0
  -20.1095  -37.9579   -6.4714 C   0  0  0  0  0  0  0  0  0  0  0  0
  -19.8451  -39.3193   -6.2192 C   0  0  0  0  0  0  0  0  0  0  0  0
  -18.3590  -39.5385   -6.2343 C   0  0  0  0  0  0  0  0  0  0  0  0
  -17.7986  -40.2264   -7.4186 C   0  0  2  0  0  0  0  0  0  0  0  0
  -16.9551  -41.3529   -7.0535 N   0  0  0  0  0  0  0  0  0  0  0  0
  -17.2074  -42.7170   -7.3686 C   0  0  0  0  0  0  0  0  0  0  0  0
  -16.1058  -43.2801   -7.8296 O   0  0  0  0  0  0  0  0  0  0  0  0
  -16.8918  -39.2340   -8.1781 C   0  0  2  0  0  0  0  0  0  0  0  0
  -17.7097  -38.3051   -8.8347 O   0  0  0  0  0  0  0  0  0  0  0  0
  -16.0061  -39.9817   -9.1479 C   0  0  0  0  0  0  0  0  0  0  0  0
  -14.7060  -40.1124   -8.5949 N   0  0  0  0  0  0  0  0  0  0  0  0
  -13.6905  -40.6384   -9.4309 C   0  0  0  0  0  0  0  0  0  0  0  0
  -13.6627  -40.1307  -10.8167 C   0  0  0  0  0  0  0  0  0  0  0  0
  -13.9857  -40.9493  -11.8714 C   0  0  0  0  0  0  0  0  0  0  0  0
  -13.9494  -40.4600  -13.1509 C   0  0  0  0  0  0  0  0  0  0  0  0
  -13.5958  -39.1633  -13.3966 C   0  0  0  0  0  0  0  0  0  0  0  0
  -13.2683  -38.3342  -12.3239 C   0  0  0  0  0  0  0  0  0  0  0  0
  -13.3023  -38.8179  -11.0392 C   0  0  0  0  0  0  0  0  0  0  0  0
  -12.8791  -36.9244  -12.5870 C   0  0  0  0  0  0  0  0  0  0  0  0
  -13.8385  -35.9654  -11.8779 C   0  0  0  0  0  0  0  0  0  0  0  0
  -11.4936  -36.6187  -12.0592 C   0  0  0  0  0  0  0  0  0  0  0  0
  -20.8866  -40.1945   -6.0791 C   0  0  0  0  0  0  0  0  0  0  0  0
  -20.2356  -45.4980   -6.7528 N   0  0  0  0  0  0  0  0  0  0  0  0
  1  2  1  0
  2  3  1  0
  3  4  2  0
  4  5  1  0
  5  6  2  0
  6  7  1  0
  7  8  1  0
  8  9  1  0
  9 10  1  0
 10 11  1  0
 11 12  1  0
 12 13  1  0
 13 14  1  0
 14 15  2  0
 15 16  1  0
 16 17  2  0
 17 18  1  0
 19 18  1  1
 19 20  1  0
 20 21  1  0
 21 22  2  0
 19 23  1  0
 23 24  1  6
 23 25  1  0
 25 26  1  0
 26 27  1  0
 27 28  1  0
 28 29  2  0
 29 30  1  0
 30 31  2  0
 31 32  1  0
 32 33  2  0
 32 34  1  0
 34 35  1  0
 34 36  1  0
 17 37  1  0
  7 38  2  0
 21  5  1  0
 33 28  1  0
 37 13  2  0
 38  3  1  0
M  END
$$$$
