
     RDKit          3D

 38 41  0  0  0  0  0  0  0  0999 V2000
  -22.8036  -45.4170   -4.2519 C   0  0  0  0  0  0  0  0  0  0  0  0
  -22.9341  -44.5902   -5.4088 O   0  0  0  0  0  0  0  0  0  0  0  0
  -21.7755  -44.3964   -6.1569 C   0  0  0  0  0  0  0  0  0  0  0  0
  -21.0434  -43.2432   -6.0364 C   0  0  0  0  0  0  0  0  0  0  0  0
  -19.8514  -42.9802   -6.7674 C   0  0  0  0  0  0  0  0  0  0  0  0
  -19.4015  -43.9410   -7.6448 C   0  0  0  0  0  0  0  0  0  0  0  0
  -20.1384  -45.0913   -7.7684 C   0  0  0  0  0  0  0  0  0  0  0  0
  -20.0098  -46.2357   -8.6397 N   0  0  0  0  0  0  0  0  0  0  0  0
  -19.9410  -46.2697  -10.0951 C   0  0  0  0  0  0  0  0  0  0  0  0
  -18.7153  -46.8548  -10.6631 C   0  0  0  0  0  0  0  0  0  0  0  0
  -17.7328  -46.0155  -11.3666 C   0  0  0  0  0  0  0  0  0  0  0  0
  -18.3178  -44.9732  -12.2396 C   0  0  0  0  0  0  0  0  0  0  0  0
  -17.9778  -43.5689  -11.8648 C   0  0  0  0  0  0  0  0  0  0  0  0
  -16.9086  -43.0912  -12.6593 C   0  0  0  0  0  0  0  0  0  0  0  0
  -16.3210  -41.8672  -12.5018 C   0  0  0  0  0  0  0  0  0  0  0  0
  -16.8592  -41.1161  -11.4857 C   0  0  0  0  0  0  0  0  0  0  0  0
  -17.9229  -41.5418  -10.6646 C   0  0  0  0  0  0  0  0  0  0  0  0
  -18.1815  -40.4944   -9.6192 C   0  0  0  0  0  0  0  0  0  0  0  0
  -17.7346  -40.8020   -8.2425 C   0  0  2  0  0  0  0  0  0  0  0  0
  -18.7933  -40.6123   -7.2642 N   0  0  0  0  0  0  0  0  0  0  0  0
  -19.3694  -41.6305   -6.4547 C   0  0  0  0  0  0  0  0  0  0  0  0
  -19.4584  -41.2113   -5.2059 O   0  0  0  0  0  0  0  0  0  0  0  0
  -16.6098  -39.8156   -7.8606 C   0  0  2  0  0  0  0  0  0  0  0  0
  -15.3928  -40.3382   -8.3175 O   0  0  0  0  0  0  0  0  0  0  0  0
  -16.5981  -39.5992   -6.3649 C   0  0  0  0  0  0  0  0  0  0  0  0
  -16.8401  -38.2295   -6.0846 N   0  0  0  0  0  0  0  0  0  0  0  0
  -18.0250  -37.6554   -6.6076 C   0  0  0  0  0  0  0  0  0  0  0  0
  -19.2879  -38.3263   -6.2416 C   0  0  0  0  0  0  0  0  0  0  0  0
  -19.2882  -39.4128   -5.4012 C   0  0  0  0  0  0  0  0  0  0  0  0
  -20.4709  -40.0244   -5.0771 C   0  0  0  0  0  0  0  0  0  0  0  0
  -21.6572  -39.5683   -5.5784 C   0  0  0  0  0  0  0  0  0  0  0  0
  -21.6541  -38.4648   -6.4316 C   0  0  0  0  0  0  0  0  0  0  0  0
  -20.4726  -37.8472   -6.7607 C   0  0  0  0  0  0  0  0  0  0  0  0
  -22.9417  -37.9680   -6.9824 C   0  0  0  0  0  0  0  0  0  0  0  0
  -23.0373  -36.4484   -6.8265 C   0  0  0  0  0  0  0  0  0  0  0  0
  -23.0666  -38.2596   -8.4626 C   0  0  0  0  0  0  0  0  0  0  0  0
  -18.4798  -42.7745  -10.8663 C   0  0  0  0  0  0  0  0  0  0  0  0
  -21.2976  -45.2707   -7.0149 N   0  0  0  0  0  0  0  0  0  0  0  0
  1  2  1  0
  2  3  1  0
  3  4  2  0
  4  5  1  0
  5  6  2  0
  6  7  1  0
  7  8  1  0
  8  9  1  0
  9 10  1  0
 10 11  1  0
 11 12  1  0
 12 13  1  0
 13 14  1  0
 14 15  2  0
 15 16  1  0
 16 17  2  0
 17 18  1  0
 19 18  1  6
 19 20  1  0
 20 21  1  0
 21 22  2  0
 19 23  1  0
 23 24  1  1
 23 25  1  0
 25 26  1  0
 26 27  1  0
 27 28  1  0
 28 29  2  0
 29 30  1  0
 30 31  2  0
 31 32  1  0
 32 33  2  0
 32 34  1  0
 34 35  1  0
 34 36  1  0
 17 37  1  0
  7 38  2  0
 21  5  1  0
 33 28  1  0
 37 13  2  0
 38  3  1  0
M  END
$$$$
