
     RDKit          3D

 38 41  0  0  0  0  0  0  0  0999 V2000
  -18.2607  -47.8769   -4.8601 C   0  0  0  0  0  0  0  0  0  0  0  0
  -17.6671  -47.2807   -6.0138 O   0  0  0  0  0  0  0  0  0  0  0  0
  -18.2265  -46.0779   -6.4381 C   0  0  0  0  0  0  0  0  0  0  0  0
  -17.4400  -44.9802   -6.6768 C   0  0  0  0  0  0  0  0  0  0  0  0
  -17.9439  -43.7230   -7.1126 C   0  0  0  0  0  0  0  0  0  0  0  0
  -19.3006  -43.6000   -7.3121 C   0  0  0  0  0  0  0  0  0  0  0  0
  -20.0862  -44.6973   -7.0670 C   0  0  0  0  0  0  0  0  0  0  0  0
  -21.5176  -44.8877   -7.0841 N   0  0  0  0  0  0  0  0  0  0  0  0
  -22.5443  -44.1451   -6.3640 C   0  0  0  0  0  0  0  0  0  0  0  0
  -23.5480  -43.4676   -7.2011 C   0  0  0  0  0  0  0  0  0  0  0  0
  -23.5876  -41.9999   -7.2950 C   0  0  0  0  0  0  0  0  0  0  0  0
  -23.3430  -41.2889   -6.0201 C   0  0  0  0  0  0  0  0  0  0  0  0
  -22.1403  -40.4047   -6.0085 C   0  0  0  0  0  0  0  0  0  0  0  0
  -22.5141  -39.0601   -6.2427 C   0  0  0  0  0  0  0  0  0  0  0  0
  -21.6285  -38.0264   -6.3659 C   0  0  0  0  0  0  0  0  0  0  0  0
  -20.3127  -38.4009   -6.2443 C   0  0  0  0  0  0  0  0  0  0  0  0
  -19.8846  -39.7235   -6.0111 C   0  0  0  0  0  0  0  0  0  0  0  0
  -18.3827  -39.7588   -6.0204 C   0  0  0  0  0  0  0  0  0  0  0  0
  -17.7373  -40.3542   -7.2115 C   0  0  2  0  0  0  0  0  0  0  0  0
  -16.7636  -41.3745   -6.8583 N   0  0  0  0  0  0  0  0  0  0  0  0
  -16.8456  -42.7542   -7.1955 C   0  0  0  0  0  0  0  0  0  0  0  0
  -15.6813  -43.1708   -7.6582 O   0  0  0  0  0  0  0  0  0  0  0  0
  -16.9558  -39.2465   -7.9504 C   0  0  2  0  0  0  0  0  0  0  0  0
  -17.8775  -38.4250   -8.6127 O   0  0  0  0  0  0  0  0  0  0  0  0
  -15.9674  -39.8650   -8.9120 C   0  0  0  0  0  0  0  0  0  0  0  0
  -14.6510  -39.6913   -8.4121 N   0  0  0  0  0  0  0  0  0  0  0  0
  -13.5765  -39.9444   -9.3000 C   0  0  0  0  0  0  0  0  0  0  0  0
  -13.6070  -39.2123  -10.5814 C   0  0  0  0  0  0  0  0  0  0  0  0
  -13.7927  -39.8798  -11.7675 C   0  0  0  0  0  0  0  0  0  0  0  0
  -13.8134  -39.1823  -12.9469 C   0  0  0  0  0  0  0  0  0  0  0  0
  -13.6522  -37.8256  -12.9629 C   0  0  0  0  0  0  0  0  0  0  0  0
  -13.4637  -37.1504  -11.7570 C   0  0  0  0  0  0  0  0  0  0  0  0
  -13.4417  -37.8429  -10.5715 C   0  0  0  0  0  0  0  0  0  0  0  0
  -13.2838  -35.6754  -11.7702 C   0  0  0  0  0  0  0  0  0  0  0  0
  -12.9809  -35.1880  -13.1892 C   0  0  0  0  0  0  0  0  0  0  0  0
  -14.5383  -34.9548  -11.3242 C   0  0  0  0  0  0  0  0  0  0  0  0
  -20.8116  -40.7218   -5.8906 C   0  0  0  0  0  0  0  0  0  0  0  0
  -19.5127  -45.8944   -6.6402 N   0  0  0  0  0  0  0  0  0  0  0  0
  1  2  1  0
  2  3  1  0
  3  4  2  0
  4  5  1  0
  5  6  2  0
  6  7  1  0
  7  8  1  0
  8  9  1  0
  9 10  1  0
 10 11  1  0
 11 12  1  0
 12 13  1  0
 13 14  1  0
 14 15  2  0
 15 16  1  0
 16 17  2  0
 17 18  1  0
 19 18  1  1
 19 20  1  0
 20 21  1  0
 21 22  2  0
 19 23  1  0
 23 24  1  6
 23 25  1  0
 25 26  1  0
 26 27  1  0
 27 28  1  0
 28 29  2  0
 29 30  1  0
 30 31  2  0
 31 32  1  0
 32 33  2  0
 32 34  1  0
 34 35  1  0
 34 36  1  0
 17 37  1  0
  7 38  2  0
 21  5  1  0
 33 28  1  0
 37 13  2  0
 38  3  1  0
M  END
$$$$
