
     RDKit          3D

 38 41  0  0  0  0  0  0  0  0999 V2000
  -20.8440  -42.2127   -0.6343 C   0  0  0  0  0  0  0  0  0  0  0  0
  -20.1798  -41.2516   -1.4554 O   0  0  0  0  0  0  0  0  0  0  0  0
  -20.3696  -41.3837   -2.8288 C   0  0  0  0  0  0  0  0  0  0  0  0
  -19.4147  -40.9587   -3.7164 C   0  0  0  0  0  0  0  0  0  0  0  0
  -19.5422  -41.0643   -5.1295 C   0  0  0  0  0  0  0  0  0  0  0  0
  -20.6891  -41.6309   -5.6385 C   0  0  0  0  0  0  0  0  0  0  0  0
  -21.6457  -42.0499   -4.7492 C   0  0  0  0  0  0  0  0  0  0  0  0
  -22.9722  -42.5894   -4.9356 N   0  0  0  0  0  0  0  0  0  0  0  0
  -24.0893  -42.0241   -5.6816 C   0  0  0  0  0  0  0  0  0  0  0  0
  -24.5957  -42.8455   -6.7934 C   0  0  0  0  0  0  0  0  0  0  0  0
  -24.4026  -42.4278   -8.1909 C   0  0  0  0  0  0  0  0  0  0  0  0
  -24.5752  -40.9783   -8.4356 C   0  0  0  0  0  0  0  0  0  0  0  0
  -23.3642  -40.2744   -8.9517 C   0  0  0  0  0  0  0  0  0  0  0  0
  -23.4387  -40.1302  -10.3574 C   0  0  0  0  0  0  0  0  0  0  0  0
  -22.4460  -39.5940  -11.1289 C   0  0  0  0  0  0  0  0  0  0  0  0
  -21.3397  -39.1970  -10.4185 C   0  0  0  0  0  0  0  0  0  0  0  0
  -21.2122  -39.3170   -9.0198 C   0  0  0  0  0  0  0  0  0  0  0  0
  -19.8408  -38.8571   -8.6138 C   0  0  0  0  0  0  0  0  0  0  0  0
  -18.8718  -39.9077   -8.2303 C   0  0  2  0  0  0  0  0  0  0  0  0
  -18.2521  -39.6418   -6.9422 N   0  0  0  0  0  0  0  0  0  0  0  0
  -18.3791  -40.4473   -5.7764 C   0  0  0  0  0  0  0  0  0  0  0  0
  -17.1922  -40.6280   -5.2269 O   0  0  0  0  0  0  0  0  0  0  0  0
  -17.7279  -39.9212   -9.2672 C   0  0  2  0  0  0  0  0  0  0  0  0
  -18.1973  -40.5431  -10.4316 O   0  0  0  0  0  0  0  0  0  0  0  0
  -16.5238  -40.6363   -8.6989 C   0  0  0  0  0  0  0  0  0  0  0  0
  -15.9121  -39.8196   -7.7129 N   0  0  0  0  0  0  0  0  0  0  0  0
  -16.1240  -38.4216   -7.7997 C   0  0  0  0  0  0  0  0  0  0  0  0
  -16.1707  -37.8554   -9.1622 C   0  0  0  0  0  0  0  0  0  0  0  0
  -15.5673  -38.5026  -10.2129 C   0  0  0  0  0  0  0  0  0  0  0  0
  -15.6181  -37.9582  -11.4693 C   0  0  0  0  0  0  0  0  0  0  0  0
  -16.2634  -36.7754  -11.6961 C   0  0  0  0  0  0  0  0  0  0  0  0
  -16.8751  -36.1202  -10.6275 C   0  0  0  0  0  0  0  0  0  0  0  0
  -16.8280  -36.6600   -9.3657 C   0  0  0  0  0  0  0  0  0  0  0  0
  -17.5744  -34.8315  -10.8689 C   0  0  0  0  0  0  0  0  0  0  0  0
  -18.6522  -34.6026   -9.8065 C   0  0  0  0  0  0  0  0  0  0  0  0
  -16.6254  -33.6552  -10.7824 C   0  0  0  0  0  0  0  0  0  0  0  0
  -22.2370  -39.8563   -8.2924 C   0  0  0  0  0  0  0  0  0  0  0  0
  -21.4432  -41.9091   -3.3770 N   0  0  0  0  0  0  0  0  0  0  0  0
  1  2  1  0
  2  3  1  0
  3  4  2  0
  4  5  1  0
  5  6  2  0
  6  7  1  0
  7  8  1  0
  8  9  1  0
  9 10  1  0
 10 11  1  0
 11 12  1  0
 12 13  1  0
 13 14  1  0
 14 15  2  0
 15 16  1  0
 16 17  2  0
 17 18  1  0
 19 18  1  6
 19 20  1  0
 20 21  1  0
 21 22  2  0
 19 23  1  0
 23 24  1  6
 23 25  1  0
 25 26  1  0
 26 27  1  0
 27 28  1  0
 28 29  2  0
 29 30  1  0
 30 31  2  0
 31 32  1  0
 32 33  2  0
 32 34  1  0
 34 35  1  0
 34 36  1  0
 17 37  1  0
  7 38  2  0
 21  5  1  0
 33 28  1  0
 37 13  2  0
 38  3  1  0
M  END
$$$$
