
     RDKit          3D

 38 41  0  0  0  0  0  0  0  0999 V2000
  -19.3154  -46.8773   -9.5461 C   0  0  0  0  0  0  0  0  0  0  0  0
  -19.6506  -45.9379   -8.5242 O   0  0  0  0  0  0  0  0  0  0  0  0
  -18.9407  -44.7398   -8.5370 C   0  0  0  0  0  0  0  0  0  0  0  0
  -19.5562  -43.5527   -8.2332 C   0  0  0  0  0  0  0  0  0  0  0  0
  -18.8924  -42.2943   -8.2254 C   0  0  0  0  0  0  0  0  0  0  0  0
  -17.5515  -42.2645   -8.5360 C   0  0  0  0  0  0  0  0  0  0  0  0
  -16.9390  -43.4521   -8.8454 C   0  0  0  0  0  0  0  0  0  0  0  0
  -15.6031  -43.7652   -9.2957 N   0  0  0  0  0  0  0  0  0  0  0  0
  -14.8815  -43.2351  -10.4456 C   0  0  0  0  0  0  0  0  0  0  0  0
  -13.6246  -42.5314  -10.1420 C   0  0  0  0  0  0  0  0  0  0  0  0
  -13.5103  -41.0758  -10.3237 C   0  0  0  0  0  0  0  0  0  0  0  0
  -14.1748  -40.5470  -11.5361 C   0  0  0  0  0  0  0  0  0  0  0  0
  -15.2747  -39.5706  -11.2807 C   0  0  0  0  0  0  0  0  0  0  0  0
  -14.8020  -38.2450  -11.4284 C   0  0  0  0  0  0  0  0  0  0  0  0
  -15.5533  -37.1294  -11.1854 C   0  0  0  0  0  0  0  0  0  0  0  0
  -16.8357  -37.3987  -10.7737 C   0  0  0  0  0  0  0  0  0  0  0  0
  -17.3581  -38.6976  -10.6100 C   0  0  0  0  0  0  0  0  0  0  0  0
  -18.7570  -38.5965  -10.0717 C   0  0  0  0  0  0  0  0  0  0  0  0
  -18.9495  -38.9445   -8.6463 C   0  0  2  0  0  0  0  0  0  0  0  0
  -20.0150  -39.9151   -8.4553 N   0  0  0  0  0  0  0  0  0  0  0  0
  -19.8585  -41.2295   -7.9341 C   0  0  0  0  0  0  0  0  0  0  0  0
  -20.7912  -41.4654   -7.0298 O   0  0  0  0  0  0  0  0  0  0  0  0
  -19.3807  -37.6721   -7.8853 C   0  0  2  0  0  0  0  0  0  0  0  0
  -18.2340  -36.9173   -7.6054 O   0  0  0  0  0  0  0  0  0  0  0  0
  -20.1215  -38.0508   -6.6236 C   0  0  0  0  0  0  0  0  0  0  0  0
  -21.3609  -38.6505   -6.9663 N   0  0  0  0  0  0  0  0  0  0  0  0
  -22.3300  -38.7788   -5.9409 C   0  0  0  0  0  0  0  0  0  0  0  0
  -22.3526  -40.0707   -5.2271 C   0  0  0  0  0  0  0  0  0  0  0  0
  -23.4224  -40.9233   -5.3515 C   0  0  0  0  0  0  0  0  0  0  0  0
  -23.4262  -42.1161   -4.6769 C   0  0  0  0  0  0  0  0  0  0  0  0
  -22.3770  -42.4741   -3.8783 C   0  0  0  0  0  0  0  0  0  0  0  0
  -21.2920  -41.6064   -3.7537 C   0  0  0  0  0  0  0  0  0  0  0  0
  -21.2816  -40.4095   -4.4266 C   0  0  0  0  0  0  0  0  0  0  0  0
  -20.1507  -41.9899   -2.8829 C   0  0  0  0  0  0  0  0  0  0  0  0
  -19.2930  -40.7646   -2.5577 C   0  0  0  0  0  0  0  0  0  0  0  0
  -20.6217  -42.5518   -1.5584 C   0  0  0  0  0  0  0  0  0  0  0  0
  -16.5661  -39.7816  -10.8711 C   0  0  0  0  0  0  0  0  0  0  0  0
  -17.6627  -44.6438   -8.8310 N   0  0  0  0  0  0  0  0  0  0  0  0
  1  2  1  0
  2  3  1  0
  3  4  2  0
  4  5  1  0
  5  6  2  0
  6  7  1  0
  7  8  1  0
  8  9  1  0
  9 10  1  0
 10 11  1  0
 11 12  1  0
 12 13  1  0
 13 14  1  0
 14 15  2  0
 15 16  1  0
 16 17  2  0
 17 18  1  0
 19 18  1  6
 19 20  1  0
 20 21  1  0
 21 22  2  0
 19 23  1  0
 23 24  1  1
 23 25  1  0
 25 26  1  0
 26 27  1  0
 27 28  1  0
 28 29  2  0
 29 30  1  0
 30 31  2  0
 31 32  1  0
 32 33  2  0
 32 34  1  0
 34 35  1  0
 34 36  1  0
 17 37  1  0
  7 38  2  0
 21  5  1  0
 33 28  1  0
 37 13  2  0
 38  3  1  0
M  END
$$$$
