
     RDKit          3D

 38 41  0  0  0  0  0  0  0  0999 V2000
  -17.5071  -45.7747  -12.2018 C   0  0  0  0  0  0  0  0  0  0  0  0
  -17.9818  -44.4280  -12.2046 O   0  0  0  0  0  0  0  0  0  0  0  0
  -17.0688  -43.4560  -11.8030 C   0  0  0  0  0  0  0  0  0  0  0  0
  -17.3205  -42.6590  -10.7159 C   0  0  0  0  0  0  0  0  0  0  0  0
  -16.4329  -41.6493  -10.2502 C   0  0  0  0  0  0  0  0  0  0  0  0
  -15.2481  -41.4627  -10.9262 C   0  0  0  0  0  0  0  0  0  0  0  0
  -15.0010  -42.2568  -12.0169 C   0  0  0  0  0  0  0  0  0  0  0  0
  -13.9294  -42.2676  -12.9849 N   0  0  0  0  0  0  0  0  0  0  0  0
  -13.4484  -41.1774  -13.8240 C   0  0  0  0  0  0  0  0  0  0  0  0
  -12.0385  -40.7989  -13.6333 C   0  0  0  0  0  0  0  0  0  0  0  0
  -11.6778  -39.5111  -13.0200 C   0  0  0  0  0  0  0  0  0  0  0  0
  -12.5179  -38.3666  -13.4387 C   0  0  0  0  0  0  0  0  0  0  0  0
  -13.2821  -37.7062  -12.3394 C   0  0  0  0  0  0  0  0  0  0  0  0
  -12.6019  -36.5488  -11.8920 C   0  0  0  0  0  0  0  0  0  0  0  0
  -13.0125  -35.7727  -10.8445 C   0  0  0  0  0  0  0  0  0  0  0  0
  -14.1647  -36.2137  -10.2409 C   0  0  0  0  0  0  0  0  0  0  0  0
  -14.8818  -37.3581  -10.6448 C   0  0  0  0  0  0  0  0  0  0  0  0
  -16.0330  -37.5699   -9.7030 C   0  0  0  0  0  0  0  0  0  0  0  0
  -15.9047  -38.6796   -8.7325 C   0  0  2  0  0  0  0  0  0  0  0  0
  -17.0574  -39.5655   -8.7531 N   0  0  0  0  0  0  0  0  0  0  0  0
  -17.0432  -40.9398   -9.1206 C   0  0  0  0  0  0  0  0  0  0  0  0
  -17.7275  -41.6449   -8.2387 O   0  0  0  0  0  0  0  0  0  0  0  0
  -15.8428  -38.0818   -7.3102 C   0  0  2  0  0  0  0  0  0  0  0  0
  -14.6257  -38.4587   -6.7274 O   0  0  0  0  0  0  0  0  0  0  0  0
  -17.0232  -38.5605   -6.4967 C   0  0  0  0  0  0  0  0  0  0  0  0
  -18.1982  -37.8967   -6.9348 N   0  0  0  0  0  0  0  0  0  0  0  0
  -19.3617  -38.0350   -6.1385 C   0  0  0  0  0  0  0  0  0  0  0  0
  -20.4464  -38.8563   -6.7111 C   0  0  0  0  0  0  0  0  0  0  0  0
  -21.0513  -38.4974   -7.8910 C   0  0  0  0  0  0  0  0  0  0  0  0
  -22.0595  -39.2710   -8.4037 C   0  0  0  0  0  0  0  0  0  0  0  0
  -22.4754  -40.4006   -7.7573 C   0  0  0  0  0  0  0  0  0  0  0  0
  -21.8596  -40.7627   -6.5594 C   0  0  0  0  0  0  0  0  0  0  0  0
  -20.8487  -39.9921   -6.0398 C   0  0  0  0  0  0  0  0  0  0  0  0
  -22.3117  -41.9882   -5.8510 C   0  0  0  0  0  0  0  0  0  0  0  0
  -23.0979  -41.6165   -4.5914 C   0  0  0  0  0  0  0  0  0  0  0  0
  -23.2395  -42.8207   -6.7099 C   0  0  0  0  0  0  0  0  0  0  0  0
  -14.4313  -38.0984  -11.7027 C   0  0  0  0  0  0  0  0  0  0  0  0
  -15.9251  -43.2243  -12.4090 N   0  0  0  0  0  0  0  0  0  0  0  0
  1  2  1  0
  2  3  1  0
  3  4  2  0
  4  5  1  0
  5  6  2  0
  6  7  1  0
  7  8  1  0
  8  9  1  0
  9 10  1  0
 10 11  1  0
 11 12  1  0
 12 13  1  0
 13 14  1  0
 14 15  2  0
 15 16  1  0
 16 17  2  0
 17 18  1  0
 19 18  1  6
 19 20  1  0
 20 21  1  0
 21 22  2  0
 19 23  1  0
 23 24  1  1
 23 25  1  0
 25 26  1  0
 26 27  1  0
 27 28  1  0
 28 29  2  0
 29 30  1  0
 30 31  2  0
 31 32  1  0
 32 33  2  0
 32 34  1  0
 34 35  1  0
 34 36  1  0
 17 37  1  0
  7 38  2  0
 21  5  1  0
 33 28  1  0
 37 13  2  0
 38  3  1  0
M  END
$$$$
