
     RDKit          3D

 38 41  0  0  0  0  0  0  0  0999 V2000
  -17.9748  -47.9282   -8.2119 C   0  0  0  0  0  0  0  0  0  0  0  0
  -17.2726  -46.7852   -7.7225 O   0  0  0  0  0  0  0  0  0  0  0  0
  -17.9524  -45.5718   -7.7940 C   0  0  0  0  0  0  0  0  0  0  0  0
  -17.2699  -44.3838   -7.8490 C   0  0  0  0  0  0  0  0  0  0  0  0
  -17.8995  -43.1101   -7.9246 C   0  0  0  0  0  0  0  0  0  0  0  0
  -19.2753  -43.0652   -7.9492 C   0  0  0  0  0  0  0  0  0  0  0  0
  -19.9562  -44.2543   -7.8879 C   0  0  0  0  0  0  0  0  0  0  0  0
  -21.3647  -44.5612   -7.8018 N   0  0  0  0  0  0  0  0  0  0  0  0
  -22.3412  -44.0932   -6.8263 C   0  0  0  0  0  0  0  0  0  0  0  0
  -23.4784  -43.3356   -7.3740 C   0  0  0  0  0  0  0  0  0  0  0  0
  -23.6199  -41.8938   -7.1176 C   0  0  0  0  0  0  0  0  0  0  0  0
  -23.2681  -41.4696   -5.7438 C   0  0  0  0  0  0  0  0  0  0  0  0
  -22.1298  -40.5084   -5.6497 C   0  0  0  0  0  0  0  0  0  0  0  0
  -22.6117  -39.1839   -5.5233 C   0  0  0  0  0  0  0  0  0  0  0  0
  -21.8130  -38.0751   -5.4918 C   0  0  0  0  0  0  0  0  0  0  0  0
  -20.4715  -38.3501   -5.5971 C   0  0  0  0  0  0  0  0  0  0  0  0
  -19.9374  -39.6483   -5.7249 C   0  0  0  0  0  0  0  0  0  0  0  0
  -18.4482  -39.5482   -5.8966 C   0  0  0  0  0  0  0  0  0  0  0  0
  -17.9153  -39.8008   -7.2538 C   0  0  2  0  0  0  0  0  0  0  0  0
  -16.8449  -40.7846   -7.2511 N   0  0  0  0  0  0  0  0  0  0  0  0
  -16.8813  -42.0546   -7.8913 C   0  0  0  0  0  0  0  0  0  0  0  0
  -15.7576  -42.2521   -8.5558 O   0  0  0  0  0  0  0  0  0  0  0  0
  -17.2985  -38.4907   -7.7897 C   0  0  2  0  0  0  0  0  0  0  0  0
  -18.3155  -37.7417   -8.3960 O   0  0  0  0  0  0  0  0  0  0  0  0
  -16.1820  -38.8038   -8.7590 C   0  0  0  0  0  0  0  0  0  0  0  0
  -15.0040  -39.1215   -8.0348 N   0  0  0  0  0  0  0  0  0  0  0  0
  -14.3279  -40.3176   -8.3799 C   0  0  0  0  0  0  0  0  0  0  0  0
  -14.1318  -40.5594   -9.8229 C   0  0  0  0  0  0  0  0  0  0  0  0
  -13.2456  -39.8007  -10.5481 C   0  0  0  0  0  0  0  0  0  0  0  0
  -13.0813  -40.0380  -11.8877 C   0  0  0  0  0  0  0  0  0  0  0  0
  -13.7879  -41.0230  -12.5179 C   0  0  0  0  0  0  0  0  0  0  0  0
  -14.6872  -41.7918  -11.7791 C   0  0  0  0  0  0  0  0  0  0  0  0
  -14.8570  -41.5595  -10.4364 C   0  0  0  0  0  0  0  0  0  0  0  0
  -15.4609  -42.8615  -12.4614 C   0  0  0  0  0  0  0  0  0  0  0  0
  -16.5460  -42.2498  -13.3508 C   0  0  0  0  0  0  0  0  0  0  0  0
  -14.5812  -43.6980  -13.3658 C   0  0  0  0  0  0  0  0  0  0  0  0
  -20.7795  -40.7256   -5.7465 C   0  0  0  0  0  0  0  0  0  0  0  0
  -19.2625  -45.4614   -7.8142 N   0  0  0  0  0  0  0  0  0  0  0  0
  1  2  1  0
  2  3  1  0
  3  4  2  0
  4  5  1  0
  5  6  2  0
  6  7  1  0
  7  8  1  0
  8  9  1  0
  9 10  1  0
 10 11  1  0
 11 12  1  0
 12 13  1  0
 13 14  1  0
 14 15  2  0
 15 16  1  0
 16 17  2  0
 17 18  1  0
 19 18  1  1
 19 20  1  0
 20 21  1  0
 21 22  2  0
 19 23  1  0
 23 24  1  6
 23 25  1  0
 25 26  1  0
 26 27  1  0
 27 28  1  0
 28 29  2  0
 29 30  1  0
 30 31  2  0
 31 32  1  0
 32 33  2  0
 32 34  1  0
 34 35  1  0
 34 36  1  0
 17 37  1  0
  7 38  2  0
 21  5  1  0
 33 28  1  0
 37 13  2  0
 38  3  1  0
M  END
$$$$
