
     RDKit          3D

 38 41  0  0  0  0  0  0  0  0999 V2000
  -16.3706  -46.1327  -10.7562 C   0  0  0  0  0  0  0  0  0  0  0  0
  -17.4623  -45.4019  -10.1966 O   0  0  0  0  0  0  0  0  0  0  0  0
  -17.2582  -44.0356  -10.0199 C   0  0  0  0  0  0  0  0  0  0  0  0
  -17.7339  -43.3900   -8.9076 C   0  0  0  0  0  0  0  0  0  0  0  0
  -17.5605  -41.9992   -8.6627 C   0  0  0  0  0  0  0  0  0  0  0  0
  -16.8701  -41.2562   -9.5938 C   0  0  0  0  0  0  0  0  0  0  0  0
  -16.4003  -41.9026  -10.7086 C   0  0  0  0  0  0  0  0  0  0  0  0
  -15.7332  -41.4247  -11.8969 N   0  0  0  0  0  0  0  0  0  0  0  0
  -16.1623  -40.3896  -12.8288 C   0  0  0  0  0  0  0  0  0  0  0  0
  -15.2536  -39.2399  -12.9690 C   0  0  0  0  0  0  0  0  0  0  0  0
  -15.6310  -37.9118  -12.4607 C   0  0  0  0  0  0  0  0  0  0  0  0
  -17.0473  -37.5420  -12.6801 C   0  0  0  0  0  0  0  0  0  0  0  0
  -17.8392  -37.3021  -11.4376 C   0  0  0  0  0  0  0  0  0  0  0  0
  -17.9194  -35.9161  -11.1635 C   0  0  0  0  0  0  0  0  0  0  0  0
  -18.5138  -35.3853  -10.0531 C   0  0  0  0  0  0  0  0  0  0  0  0
  -19.0398  -36.3234   -9.1989 C   0  0  0  0  0  0  0  0  0  0  0  0
  -18.9883  -37.7143   -9.4222 C   0  0  0  0  0  0  0  0  0  0  0  0
  -19.5891  -38.4206   -8.2401 C   0  0  0  0  0  0  0  0  0  0  0  0
  -18.6490  -39.0985   -7.3202 C   0  0  2  0  0  0  0  0  0  0  0  0
  -19.0225  -40.4814   -7.0714 N   0  0  0  0  0  0  0  0  0  0  0  0
  -18.2561  -41.6262   -7.4262 C   0  0  0  0  0  0  0  0  0  0  0  0
  -18.2083  -42.4650   -6.4076 O   0  0  0  0  0  0  0  0  0  0  0  0
  -18.6999  -38.3831   -5.9528 C   0  0  2  0  0  0  0  0  0  0  0  0
  -18.1542  -37.1018   -6.1063 O   0  0  0  0  0  0  0  0  0  0  0  0
  -17.9484  -39.1899   -4.9192 C   0  0  0  0  0  0  0  0  0  0  0  0
  -18.8512  -39.6307   -3.9173 N   0  0  0  0  0  0  0  0  0  0  0  0
  -19.4580  -40.8982   -4.0969 C   0  0  0  0  0  0  0  0  0  0  0  0
  -20.7227  -40.9105   -4.8581 C   0  0  0  0  0  0  0  0  0  0  0  0
  -21.2474  -39.7476   -5.3673 C   0  0  0  0  0  0  0  0  0  0  0  0
  -22.4249  -39.7796   -6.0674 C   0  0  0  0  0  0  0  0  0  0  0  0
  -23.0897  -40.9561   -6.2692 C   0  0  0  0  0  0  0  0  0  0  0  0
  -22.5547  -42.1354   -5.7510 C   0  0  0  0  0  0  0  0  0  0  0  0
  -21.3752  -42.1107   -5.0484 C   0  0  0  0  0  0  0  0  0  0  0  0
  -23.2766  -43.4166   -5.9647 C   0  0  0  0  0  0  0  0  0  0  0  0
  -23.0540  -43.9222   -7.3922 C   0  0  0  0  0  0  0  0  0  0  0  0
  -22.7742  -44.5031   -5.0379 C   0  0  0  0  0  0  0  0  0  0  0  0
  -18.3859  -38.1948  -10.5520 C   0  0  0  0  0  0  0  0  0  0  0  0
  -16.6141  -43.2704  -10.8735 N   0  0  0  0  0  0  0  0  0  0  0  0
  1  2  1  0
  2  3  1  0
  3  4  2  0
  4  5  1  0
  5  6  2  0
  6  7  1  0
  7  8  1  0
  8  9  1  0
  9 10  1  0
 10 11  1  0
 11 12  1  0
 12 13  1  0
 13 14  1  0
 14 15  2  0
 15 16  1  0
 16 17  2  0
 17 18  1  0
 19 18  1  6
 19 20  1  0
 20 21  1  0
 21 22  2  0
 19 23  1  0
 23 24  1  6
 23 25  1  0
 25 26  1  0
 26 27  1  0
 27 28  1  0
 28 29  2  0
 29 30  1  0
 30 31  2  0
 31 32  1  0
 32 33  2  0
 32 34  1  0
 34 35  1  0
 34 36  1  0
 17 37  1  0
  7 38  2  0
 21  5  1  0
 33 28  1  0
 37 13  2  0
 38  3  1  0
M  END
$$$$
