
     RDKit          3D

 38 41  0  0  0  0  0  0  0  0999 V2000
  -21.8469  -47.9407   -6.1821 C   0  0  0  0  0  0  0  0  0  0  0  0
  -21.4680  -46.6550   -5.6897 O   0  0  0  0  0  0  0  0  0  0  0  0
  -20.7740  -45.8386   -6.5793 C   0  0  0  0  0  0  0  0  0  0  0  0
  -20.2648  -44.6307   -6.1768 C   0  0  0  0  0  0  0  0  0  0  0  0
  -19.5456  -43.7488   -7.0309 C   0  0  0  0  0  0  0  0  0  0  0  0
  -19.3432  -44.1307   -8.3381 C   0  0  0  0  0  0  0  0  0  0  0  0
  -19.8586  -45.3365   -8.7403 C   0  0  0  0  0  0  0  0  0  0  0  0
  -19.9101  -45.9871  -10.0285 N   0  0  0  0  0  0  0  0  0  0  0  0
  -20.4450  -45.4788  -11.2853 C   0  0  0  0  0  0  0  0  0  0  0  0
  -19.4845  -45.3858  -12.3971 C   0  0  0  0  0  0  0  0  0  0  0  0
  -19.0389  -44.0783  -12.9037 C   0  0  0  0  0  0  0  0  0  0  0  0
  -20.1000  -43.0498  -12.9868 C   0  0  0  0  0  0  0  0  0  0  0  0
  -19.8788  -41.8413  -12.1388 C   0  0  0  0  0  0  0  0  0  0  0  0
  -19.3320  -40.7895  -12.9117 C   0  0  0  0  0  0  0  0  0  0  0  0
  -18.9488  -39.5804  -12.4025 C   0  0  0  0  0  0  0  0  0  0  0  0
  -19.1371  -39.4603  -11.0474 C   0  0  0  0  0  0  0  0  0  0  0  0
  -19.6767  -40.4742  -10.2303 C   0  0  0  0  0  0  0  0  0  0  0  0
  -19.6530  -40.0129   -8.8007 C   0  0  0  0  0  0  0  0  0  0  0  0
  -18.6315  -40.6224   -7.9205 C   0  0  2  0  0  0  0  0  0  0  0  0
  -19.2060  -41.1517   -6.6943 N   0  0  0  0  0  0  0  0  0  0  0  0
  -19.2138  -42.5194   -6.3027 C   0  0  0  0  0  0  0  0  0  0  0  0
  -18.8477  -42.6241   -5.0384 O   0  0  0  0  0  0  0  0  0  0  0  0
  -17.6346  -39.5235   -7.4930 C   0  0  2  0  0  0  0  0  0  0  0  0
  -16.4964  -39.6228   -8.3040 O   0  0  0  0  0  0  0  0  0  0  0  0
  -17.2922  -39.6777   -6.0291 C   0  0  0  0  0  0  0  0  0  0  0  0
  -18.0041  -38.7103   -5.2738 N   0  0  0  0  0  0  0  0  0  0  0  0
  -19.3272  -38.4088   -5.6804 C   0  0  0  0  0  0  0  0  0  0  0  0
  -20.3327  -39.4657   -5.4540 C   0  0  0  0  0  0  0  0  0  0  0  0
  -19.9523  -40.7219   -5.0491 C   0  0  0  0  0  0  0  0  0  0  0  0
  -20.9007  -41.6905   -4.8487 C   0  0  0  0  0  0  0  0  0  0  0  0
  -22.2266  -41.4258   -5.0455 C   0  0  0  0  0  0  0  0  0  0  0  0
  -22.6101  -40.1493   -5.4567 C   0  0  0  0  0  0  0  0  0  0  0  0
  -21.6651  -39.1740   -5.6596 C   0  0  0  0  0  0  0  0  0  0  0  0
  -24.0507  -39.8584   -5.6759 C   0  0  0  0  0  0  0  0  0  0  0  0
  -24.3452  -38.3827   -5.3955 C   0  0  0  0  0  0  0  0  0  0  0  0
  -24.4617  -40.1163   -7.1099 C   0  0  0  0  0  0  0  0  0  0  0  0
  -20.0494  -41.6652  -10.7898 C   0  0  0  0  0  0  0  0  0  0  0  0
  -20.5533  -46.1425   -7.8395 N   0  0  0  0  0  0  0  0  0  0  0  0
  1  2  1  0
  2  3  1  0
  3  4  2  0
  4  5  1  0
  5  6  2  0
  6  7  1  0
  7  8  1  0
  8  9  1  0
  9 10  1  0
 10 11  1  0
 11 12  1  0
 12 13  1  0
 13 14  1  0
 14 15  2  0
 15 16  1  0
 16 17  2  0
 17 18  1  0
 19 18  1  6
 19 20  1  0
 20 21  1  0
 21 22  2  0
 19 23  1  0
 23 24  1  6
 23 25  1  0
 25 26  1  0
 26 27  1  0
 27 28  1  0
 28 29  2  0
 29 30  1  0
 30 31  2  0
 31 32  1  0
 32 33  2  0
 32 34  1  0
 34 35  1  0
 34 36  1  0
 17 37  1  0
  7 38  2  0
 21  5  1  0
 33 28  1  0
 37 13  2  0
 38  3  1  0
M  END
$$$$
