
     RDKit          3D

 38 41  0  0  0  0  0  0  0  0999 V2000
  -14.1860  -45.5636  -13.0955 C   0  0  0  0  0  0  0  0  0  0  0  0
  -15.1900  -44.9581  -12.2803 O   0  0  0  0  0  0  0  0  0  0  0  0
  -14.9065  -43.6787  -11.8087 C   0  0  0  0  0  0  0  0  0  0  0  0
  -15.5238  -43.1884  -10.6867 C   0  0  0  0  0  0  0  0  0  0  0  0
  -15.2809  -41.8935  -10.1495 C   0  0  0  0  0  0  0  0  0  0  0  0
  -14.3689  -41.0847  -10.7894 C   0  0  0  0  0  0  0  0  0  0  0  0
  -13.7570  -41.5746  -11.9150 C   0  0  0  0  0  0  0  0  0  0  0  0
  -12.8426  -40.9765  -12.8592 N   0  0  0  0  0  0  0  0  0  0  0  0
  -13.0014  -39.7493  -13.6292 C   0  0  0  0  0  0  0  0  0  0  0  0
  -11.9878  -38.7090  -13.3889 C   0  0  0  0  0  0  0  0  0  0  0  0
  -12.3384  -37.4566  -12.7009 C   0  0  0  0  0  0  0  0  0  0  0  0
  -13.6526  -36.8884  -13.0764 C   0  0  0  0  0  0  0  0  0  0  0  0
  -14.6381  -36.7800  -11.9603 C   0  0  0  0  0  0  0  0  0  0  0  0
  -14.6493  -35.4649  -11.4380 C   0  0  0  0  0  0  0  0  0  0  0  0
  -15.3922  -35.0723  -10.3600 C   0  0  0  0  0  0  0  0  0  0  0  0
  -16.1456  -36.0777   -9.8052 C   0  0  0  0  0  0  0  0  0  0  0  0
  -16.1723  -37.4032  -10.2840 C   0  0  0  0  0  0  0  0  0  0  0  0
  -17.0402  -38.2312   -9.3795 C   0  0  0  0  0  0  0  0  0  0  0  0
  -16.3485  -39.1679   -8.4663 C   0  0  2  0  0  0  0  0  0  0  0  0
  -16.8782  -40.5188   -8.5582 N   0  0  0  0  0  0  0  0  0  0  0  0
  -16.1597  -41.6655   -8.9973 C   0  0  0  0  0  0  0  0  0  0  0  0
  -16.3736  -42.6709   -8.1686 O   0  0  0  0  0  0  0  0  0  0  0  0
  -16.5913  -38.7050   -7.0135 C   0  0  2  0  0  0  0  0  0  0  0  0
  -15.3514  -38.4026   -6.4353 O   0  0  0  0  0  0  0  0  0  0  0  0
  -17.3189  -39.7823   -6.2427 C   0  0  0  0  0  0  0  0  0  0  0  0
  -17.3032  -40.9888   -6.9892 N   0  0  0  0  0  0  0  0  0  0  0  0
  -18.4216  -41.2602   -7.8153 C   0  0  0  0  0  0  0  0  0  0  0  0
  -19.5913  -40.3780   -7.6349 C   0  0  0  0  0  0  0  0  0  0  0  0
  -19.8805  -39.8374   -6.4057 C   0  0  0  0  0  0  0  0  0  0  0  0
  -20.9736  -39.0243   -6.2581 C   0  0  0  0  0  0  0  0  0  0  0  0
  -21.7853  -38.7400   -7.3197 C   0  0  0  0  0  0  0  0  0  0  0  0
  -21.4893  -39.2902   -8.5668 C   0  0  0  0  0  0  0  0  0  0  0  0
  -20.3957  -40.1059   -8.7219 C   0  0  0  0  0  0  0  0  0  0  0  0
  -22.3718  -38.9868   -9.7232 C   0  0  0  0  0  0  0  0  0  0  0  0
  -21.5366  -38.5697  -10.9361 C   0  0  0  0  0  0  0  0  0  0  0  0
  -23.1747  -40.1982  -10.1471 C   0  0  0  0  0  0  0  0  0  0  0  0
  -15.4138  -37.7441  -11.3697 C   0  0  0  0  0  0  0  0  0  0  0  0
  -14.0523  -42.8564  -12.3772 N   0  0  0  0  0  0  0  0  0  0  0  0
  1  2  1  0
  2  3  1  0
  3  4  2  0
  4  5  1  0
  5  6  2  0
  6  7  1  0
  7  8  1  0
  8  9  1  0
  9 10  1  0
 10 11  1  0
 11 12  1  0
 12 13  1  0
 13 14  1  0
 14 15  2  0
 15 16  1  0
 16 17  2  0
 17 18  1  0
 19 18  1  6
 19 20  1  0
 20 21  1  0
 21 22  2  0
 19 23  1  0
 23 24  1  1
 23 25  1  0
 25 26  1  0
 26 27  1  0
 27 28  1  0
 28 29  2  0
 29 30  1  0
 30 31  2  0
 31 32  1  0
 32 33  2  0
 32 34  1  0
 34 35  1  0
 34 36  1  0
 17 37  1  0
  7 38  2  0
 21  5  1  0
 33 28  1  0
 37 13  2  0
 38  3  1  0
M  END
$$$$
