
     RDKit          3D

 38 41  0  0  0  0  0  0  0  0999 V2000
  -17.5810  -47.5098   -7.8894 C   0  0  0  0  0  0  0  0  0  0  0  0
  -17.1523  -46.3592   -7.1604 O   0  0  0  0  0  0  0  0  0  0  0  0
  -17.8811  -45.1919   -7.3744 C   0  0  0  0  0  0  0  0  0  0  0  0
  -17.2477  -43.9942   -7.5851 C   0  0  0  0  0  0  0  0  0  0  0  0
  -17.9287  -42.7656   -7.8114 C   0  0  0  0  0  0  0  0  0  0  0  0
  -19.3054  -42.7783   -7.8250 C   0  0  0  0  0  0  0  0  0  0  0  0
  -19.9372  -43.9762   -7.6081 C   0  0  0  0  0  0  0  0  0  0  0  0
  -21.3315  -44.3250   -7.4677 N   0  0  0  0  0  0  0  0  0  0  0  0
  -22.3195  -43.7776   -6.5466 C   0  0  0  0  0  0  0  0  0  0  0  0
  -23.4901  -43.1396   -7.1708 C   0  0  0  0  0  0  0  0  0  0  0  0
  -23.6881  -41.6837   -7.0944 C   0  0  0  0  0  0  0  0  0  0  0  0
  -23.3443  -41.0777   -5.7885 C   0  0  0  0  0  0  0  0  0  0  0  0
  -22.2452  -40.0683   -5.8283 C   0  0  0  0  0  0  0  0  0  0  0  0
  -22.7794  -38.7583   -5.8622 C   0  0  0  0  0  0  0  0  0  0  0  0
  -22.0261  -37.6238   -5.9785 C   0  0  0  0  0  0  0  0  0  0  0  0
  -20.6753  -37.8569   -6.0646 C   0  0  0  0  0  0  0  0  0  0  0  0
  -20.0899  -39.1389   -6.0360 C   0  0  0  0  0  0  0  0  0  0  0  0
  -18.6073  -39.0026   -6.2365 C   0  0  0  0  0  0  0  0  0  0  0  0
  -18.0739  -39.4017   -7.5579 C   0  0  2  0  0  0  0  0  0  0  0  0
  -16.9645  -40.3347   -7.4453 N   0  0  0  0  0  0  0  0  0  0  0  0
  -16.9539  -41.6751   -7.9218 C   0  0  0  0  0  0  0  0  0  0  0  0
  -15.8277  -41.9098   -8.5698 O   0  0  0  0  0  0  0  0  0  0  0  0
  -17.5143  -38.1456   -8.2600 C   0  0  2  0  0  0  0  0  0  0  0  0
  -18.5764  -37.4844   -8.8908 O   0  0  0  0  0  0  0  0  0  0  0  0
  -16.4385  -38.5404   -9.2454 C   0  0  0  0  0  0  0  0  0  0  0  0
  -16.0275  -37.3972   -9.9782 N   0  0  0  0  0  0  0  0  0  0  0  0
  -15.2891  -37.6146  -11.1676 C   0  0  0  0  0  0  0  0  0  0  0  0
  -14.0891  -38.4648  -11.0405 C   0  0  0  0  0  0  0  0  0  0  0  0
  -14.0545  -39.5007  -10.1390 C   0  0  0  0  0  0  0  0  0  0  0  0
  -12.9293  -40.2756  -10.0332 C   0  0  0  0  0  0  0  0  0  0  0  0
  -11.8347  -40.0341  -10.8145 C   0  0  0  0  0  0  0  0  0  0  0  0
  -11.8726  -38.9816  -11.7289 C   0  0  0  0  0  0  0  0  0  0  0  0
  -12.9967  -38.2009  -11.8402 C   0  0  0  0  0  0  0  0  0  0  0  0
  -10.6828  -38.7129  -12.5777 C   0  0  0  0  0  0  0  0  0  0  0  0
   -9.4173  -38.6549  -11.7188 C   0  0  0  0  0  0  0  0  0  0  0  0
  -10.4635  -39.8103  -13.5971 C   0  0  0  0  0  0  0  0  0  0  0  0
  -20.8879  -40.2427   -5.9132 C   0  0  0  0  0  0  0  0  0  0  0  0
  -19.1948  -45.1365   -7.3927 N   0  0  0  0  0  0  0  0  0  0  0  0
  1  2  1  0
  2  3  1  0
  3  4  2  0
  4  5  1  0
  5  6  2  0
  6  7  1  0
  7  8  1  0
  8  9  1  0
  9 10  1  0
 10 11  1  0
 11 12  1  0
 12 13  1  0
 13 14  1  0
 14 15  2  0
 15 16  1  0
 16 17  2  0
 17 18  1  0
 19 18  1  1
 19 20  1  0
 20 21  1  0
 21 22  2  0
 19 23  1  0
 23 24  1  6
 23 25  1  0
 25 26  1  0
 26 27  1  0
 27 28  1  0
 28 29  2  0
 29 30  1  0
 30 31  2  0
 31 32  1  0
 32 33  2  0
 32 34  1  0
 34 35  1  0
 34 36  1  0
 17 37  1  0
  7 38  2  0
 21  5  1  0
 33 28  1  0
 37 13  2  0
 38  3  1  0
M  END
$$$$
