
     RDKit          3D

 38 41  0  0  0  0  0  0  0  0999 V2000
  -18.1286  -47.1192   -5.4392 C   0  0  0  0  0  0  0  0  0  0  0  0
  -17.4894  -45.8440   -5.5041 O   0  0  0  0  0  0  0  0  0  0  0  0
  -18.2359  -44.8127   -6.0685 C   0  0  0  0  0  0  0  0  0  0  0  0
  -17.6286  -43.8131   -6.7843 C   0  0  0  0  0  0  0  0  0  0  0  0
  -18.3290  -42.7319   -7.3883 C   0  0  0  0  0  0  0  0  0  0  0  0
  -19.6982  -42.6869   -7.2518 C   0  0  0  0  0  0  0  0  0  0  0  0
  -20.3032  -43.6844   -6.5304 C   0  0  0  0  0  0  0  0  0  0  0  0
  -21.6730  -43.8913   -6.1227 N   0  0  0  0  0  0  0  0  0  0  0  0
  -22.5486  -42.9927   -5.3812 C   0  0  0  0  0  0  0  0  0  0  0  0
  -23.7817  -42.5860   -6.0749 C   0  0  0  0  0  0  0  0  0  0  0  0
  -23.9673  -41.2019   -6.5379 C   0  0  0  0  0  0  0  0  0  0  0  0
  -23.4759  -40.1634   -5.6046 C   0  0  0  0  0  0  0  0  0  0  0  0
  -22.3868  -39.2943   -6.1405 C   0  0  0  0  0  0  0  0  0  0  0  0
  -22.9192  -38.0718   -6.6142 C   0  0  0  0  0  0  0  0  0  0  0  0
  -22.1822  -37.1004   -7.2317 C   0  0  0  0  0  0  0  0  0  0  0  0
  -20.8504  -37.4091   -7.3637 C   0  0  0  0  0  0  0  0  0  0  0  0
  -20.2677  -38.6101   -6.9109 C   0  0  0  0  0  0  0  0  0  0  0  0
  -18.8174  -38.6265   -7.3022 C   0  0  0  0  0  0  0  0  0  0  0  0
  -18.4387  -39.5188   -8.4204 C   0  0  2  0  0  0  0  0  0  0  0  0
  -17.3253  -40.3888   -8.0781 N   0  0  0  0  0  0  0  0  0  0  0  0
  -17.3712  -41.8089   -8.0069 C   0  0  0  0  0  0  0  0  0  0  0  0
  -16.3266  -42.3214   -8.6310 O   0  0  0  0  0  0  0  0  0  0  0  0
  -17.9607  -38.6476   -9.6021 C   0  0  2  0  0  0  0  0  0  0  0  0
  -18.9068  -38.7448  -10.6310 O   0  0  0  0  0  0  0  0  0  0  0  0
  -16.5924  -39.1001  -10.0573 C   0  0  0  0  0  0  0  0  0  0  0  0
  -15.6413  -38.8207   -9.0421 N   0  0  0  0  0  0  0  0  0  0  0  0
  -14.2711  -38.8787   -9.3972 C   0  0  0  0  0  0  0  0  0  0  0  0
  -13.8885  -39.9517  -10.3360 C   0  0  0  0  0  0  0  0  0  0  0  0
  -14.7926  -40.4453  -11.2447 C   0  0  0  0  0  0  0  0  0  0  0  0
  -14.4191  -41.4447  -12.1047 C   0  0  0  0  0  0  0  0  0  0  0  0
  -13.1545  -41.9610  -12.0738 C   0  0  0  0  0  0  0  0  0  0  0  0
  -12.2384  -41.4580  -11.1500 C   0  0  0  0  0  0  0  0  0  0  0  0
  -12.6059  -40.4567  -10.2852 C   0  0  0  0  0  0  0  0  0  0  0  0
  -10.8632  -42.0195  -11.1102 C   0  0  0  0  0  0  0  0  0  0  0  0
  -10.6875  -42.9124   -9.8794 C   0  0  0  0  0  0  0  0  0  0  0  0
  -10.5779  -42.8867  -12.3177 C   0  0  0  0  0  0  0  0  0  0  0  0
  -21.0483  -39.5487   -6.2944 C   0  0  0  0  0  0  0  0  0  0  0  0
  -19.5430  -44.7094   -5.9689 N   0  0  0  0  0  0  0  0  0  0  0  0
  1  2  1  0
  2  3  1  0
  3  4  2  0
  4  5  1  0
  5  6  2  0
  6  7  1  0
  7  8  1  0
  8  9  1  0
  9 10  1  0
 10 11  1  0
 11 12  1  0
 12 13  1  0
 13 14  1  0
 14 15  2  0
 15 16  1  0
 16 17  2  0
 17 18  1  0
 19 18  1  1
 19 20  1  0
 20 21  1  0
 21 22  2  0
 19 23  1  0
 23 24  1  6
 23 25  1  0
 25 26  1  0
 26 27  1  0
 27 28  1  0
 28 29  2  0
 29 30  1  0
 30 31  2  0
 31 32  1  0
 32 33  2  0
 32 34  1  0
 34 35  1  0
 34 36  1  0
 17 37  1  0
  7 38  2  0
 21  5  1  0
 33 28  1  0
 37 13  2  0
 38  3  1  0
M  END
$$$$
