
     RDKit          3D

 42 45  0  0  0  0  0  0  0  0999 V2000
  -24.0882  -41.3046   -4.1104 C   0  0  0  0  0  0  0  0  0  0  0  0
  -23.2974  -41.0795   -5.4029 C   0  0  0  0  0  0  0  0  0  0  0  0
  -21.8972  -41.5577   -5.1663 C   0  0  0  0  0  0  0  0  0  0  0  0
  -21.6268  -42.8975   -5.5808 N   0  0  0  0  0  0  0  0  0  0  0  0
  -20.8326  -43.1819   -6.6998 C   0  0  0  0  0  0  0  0  0  0  0  0
  -20.6970  -44.4631   -7.1658 C   0  0  0  0  0  0  0  0  0  0  0  0
  -19.9340  -44.7383   -8.2760 C   0  0  0  0  0  0  0  0  0  0  0  0
  -19.7468  -46.1156   -8.7925 C   0  0  0  0  0  0  0  0  0  0  0  0
  -20.5293  -46.3969   -9.9041 O   0  0  0  0  0  0  0  0  0  0  0  0
  -20.5750  -47.7783  -10.0210 C   0  0  0  0  0  0  0  0  0  0  0  0
  -19.2899  -43.7098   -8.9386 C   0  0  0  0  0  0  0  0  0  0  0  0
  -19.4034  -42.4244   -8.5004 C   0  0  0  0  0  0  0  0  0  0  0  0
  -20.1641  -42.1563   -7.3938 C   0  0  0  0  0  0  0  0  0  0  0  0
  -18.7275  -41.3246   -9.1963 C   0  0  0  0  0  0  0  0  0  0  0  0
  -19.0063  -41.1334  -10.4332 O   0  0  0  0  0  0  0  0  0  0  0  0
  -17.7908  -40.4593   -8.6146 N   0  0  0  0  0  0  0  0  0  0  0  0
  -17.1757  -39.2902   -9.2063 C   0  0  1  0  0  0  0  0  0  0  0  0
  -17.9347  -38.1054   -8.7617 C   0  0  0  0  0  0  0  0  0  0  0  0
  -19.3734  -38.0862   -8.9934 C   0  0  0  0  0  0  0  0  0  0  0  0
  -20.2314  -38.7618   -8.1573 C   0  0  0  0  0  0  0  0  0  0  0  0
  -21.6224  -38.7649   -8.3666 C   0  0  0  0  0  0  0  0  0  0  0  0
  -22.1608  -38.0825   -9.4303 C   0  0  0  0  0  0  0  0  0  0  0  0
  -21.3083  -37.4018  -10.2744 C   0  0  0  0  0  0  0  0  0  0  0  0
  -19.9252  -37.4062  -10.0534 C   0  0  0  0  0  0  0  0  0  0  0  0
  -22.4451  -39.4579   -7.4993 O   0  0  0  0  0  0  0  0  0  0  0  0
  -22.1223  -39.5782   -6.1427 C   0  0  0  0  0  0  0  0  0  0  0  0
  -15.6759  -39.2123   -9.0164 C   0  0  2  0  0  0  0  0  0  0  0  0
  -15.1052  -39.0268  -10.2824 O   0  0  0  0  0  0  0  0  0  0  0  0
  -15.2282  -40.5582   -8.5193 C   0  0  0  0  0  0  0  0  0  0  0  0
  -13.9889  -41.0242   -9.0563 N   0  0  0  0  0  0  0  0  0  0  0  0
  -13.5771  -40.2438  -10.2334 C   0  0  0  0  0  0  0  0  0  0  0  0
  -12.7619  -41.0143  -11.2725 C   0  0  0  0  0  0  0  0  0  0  0  0
  -12.1246  -39.9631  -10.4256 C   0  0  0  0  0  0  0  0  0  0  0  0
  -14.5358  -39.2352  -10.7366 C   0  0  0  0  0  0  0  0  0  0  0  0
  -14.2154  -37.8973  -10.7713 C   0  0  0  0  0  0  0  0  0  0  0  0
  -15.0970  -36.9426  -11.2416 C   0  0  0  0  0  0  0  0  0  0  0  0
  -16.3426  -37.3099  -11.6959 C   0  0  0  0  0  0  0  0  0  0  0  0
  -16.6893  -38.6388  -11.6745 C   0  0  0  0  0  0  0  0  0  0  0  0
  -15.7795  -39.5956  -11.1922 C   0  0  0  0  0  0  0  0  0  0  0  0
  -14.7364  -35.4921  -11.2645 C   0  0  0  0  0  0  0  0  0  0  0  0
  -15.6664  -34.7180  -10.3701 C   0  0  0  0  0  0  0  0  0  0  0  0
  -14.9005  -34.9460  -12.6866 C   0  0  0  0  0  0  0  0  0  0  0  0
  1  2  1  0
  2  3  1  0
  3  4  1  0
  4  5  1  0
  5  6  2  0
  6  7  1  0
  7  8  1  0
  8  9  1  0
  9 10  1  0
  7 11  2  0
 11 12  1  0
 12 13  2  0
 12 14  1  0
 14 15  2  0
 14 16  1  0
 16 17  1  0
 17 18  1  1
 18 19  1  0
 19 20  2  0
 20 21  1  0
 21 22  2  0
 22 23  1  0
 23 24  2  0
 21 25  1  0
 25 26  1  0
 17 27  1  0
 27 28  1  6
 27 29  1  0
 29 30  1  0
 30 31  1  0
 31 32  1  0
 32 33  1  0
 31 34  1  0
 34 35  2  0
 35 36  1  0
 36 37  2  0
 37 38  1  0
 38 39  2  0
 36 40  1  0
 40 41  1  0
 40 42  1  0
 13  5  1  0
 24 19  1  0
 33 31  1  0
 39 34  1  0
M  END
$$$$
