
     RDKit          3D

 42 45  0  0  0  0  0  0  0  0999 V2000
  -25.5555  -45.5694  -12.1919 C   0  0  0  0  0  0  0  0  0  0  0  0
  -24.6554  -44.3302  -12.1599 C   0  0  0  0  0  0  0  0  0  0  0  0
  -23.3600  -44.7277  -11.5204 C   0  0  0  0  0  0  0  0  0  0  0  0
  -22.3967  -43.6823  -11.3815 N   0  0  0  0  0  0  0  0  0  0  0  0
  -21.8454  -43.3418  -10.1389 C   0  0  0  0  0  0  0  0  0  0  0  0
  -22.2192  -43.9954   -8.9944 C   0  0  0  0  0  0  0  0  0  0  0  0
  -21.6626  -43.6744   -7.7788 C   0  0  0  0  0  0  0  0  0  0  0  0
  -22.0616  -44.3452   -6.5180 C   0  0  0  0  0  0  0  0  0  0  0  0
  -21.7172  -43.6275   -5.3807 O   0  0  0  0  0  0  0  0  0  0  0  0
  -20.5160  -44.1515   -4.9264 C   0  0  0  0  0  0  0  0  0  0  0  0
  -20.7090  -42.6762   -7.7024 C   0  0  0  0  0  0  0  0  0  0  0  0
  -20.3158  -42.0060   -8.8220 C   0  0  0  0  0  0  0  0  0  0  0  0
  -20.8739  -42.3295  -10.0297 C   0  0  0  0  0  0  0  0  0  0  0  0
  -19.3031  -40.9474   -8.7543 C   0  0  0  0  0  0  0  0  0  0  0  0
  -19.0762  -40.2629   -9.8147 O   0  0  0  0  0  0  0  0  0  0  0  0
  -18.5543  -40.6218   -7.6151 N   0  0  0  0  0  0  0  0  0  0  0  0
  -17.8864  -39.3721   -7.3197 C   0  0  1  0  0  0  0  0  0  0  0  0
  -18.5612  -38.7617   -6.1579 C   0  0  0  0  0  0  0  0  0  0  0  0
  -20.0143  -38.6546   -6.1875 C   0  0  0  0  0  0  0  0  0  0  0  0
  -20.7850  -39.2453   -5.2135 C   0  0  0  0  0  0  0  0  0  0  0  0
  -22.1892  -39.1629   -5.2267 C   0  0  0  0  0  0  0  0  0  0  0  0
  -22.8301  -38.4800   -6.2317 C   0  0  0  0  0  0  0  0  0  0  0  0
  -22.0657  -37.8840   -7.2131 C   0  0  0  0  0  0  0  0  0  0  0  0
  -20.6681  -37.9732   -7.1869 C   0  0  0  0  0  0  0  0  0  0  0  0
  -22.9216  -39.7723   -4.2260 O   0  0  0  0  0  0  0  0  0  0  0  0
  -22.4434  -39.8203   -2.9114 C   0  0  0  0  0  0  0  0  0  0  0  0
  -16.3801  -39.4807   -7.2154 C   0  0  2  0  0  0  0  0  0  0  0  0
  -15.9194  -38.3062   -6.6062 O   0  0  0  0  0  0  0  0  0  0  0  0
  -15.8449  -39.4931   -8.6197 C   0  0  0  0  0  0  0  0  0  0  0  0
  -15.2120  -40.7100   -9.0194 N   0  0  0  0  0  0  0  0  0  0  0  0
  -13.9107  -40.4630   -9.6595 C   0  0  0  0  0  0  0  0  0  0  0  0
  -13.4924  -41.4979  -10.7045 C   0  0  0  0  0  0  0  0  0  0  0  0
  -12.7944  -41.4145   -9.3876 C   0  0  0  0  0  0  0  0  0  0  0  0
  -13.5511  -39.0518   -9.9221 C   0  0  0  0  0  0  0  0  0  0  0  0
  -14.4629  -38.1670  -10.4512 C   0  0  0  0  0  0  0  0  0  0  0  0
  -14.1452  -36.8451  -10.6991 C   0  0  0  0  0  0  0  0  0  0  0  0
  -12.8854  -36.3683  -10.4193 C   0  0  0  0  0  0  0  0  0  0  0  0
  -11.9550  -37.2286   -9.8892 C   0  0  0  0  0  0  0  0  0  0  0  0
  -12.2962  -38.5700   -9.6442 C   0  0  0  0  0  0  0  0  0  0  0  0
  -15.1449  -35.8991  -11.2822 C   0  0  0  0  0  0  0  0  0  0  0  0
  -15.3041  -36.1642  -12.7548 C   0  0  0  0  0  0  0  0  0  0  0  0
  -14.6424  -34.4605  -11.1224 C   0  0  0  0  0  0  0  0  0  0  0  0
  1  2  1  0
  2  3  1  0
  3  4  1  0
  4  5  1  0
  5  6  2  0
  6  7  1  0
  7  8  1  0
  8  9  1  0
  9 10  1  0
  7 11  2  0
 11 12  1  0
 12 13  2  0
 12 14  1  0
 14 15  2  0
 14 16  1  0
 16 17  1  0
 17 18  1  1
 18 19  1  0
 19 20  2  0
 20 21  1  0
 21 22  2  0
 22 23  1  0
 23 24  2  0
 21 25  1  0
 25 26  1  0
 17 27  1  0
 27 28  1  1
 27 29  1  0
 29 30  1  0
 30 31  1  0
 31 32  1  0
 32 33  1  0
 31 34  1  0
 34 35  2  0
 35 36  1  0
 36 37  2  0
 37 38  1  0
 38 39  2  0
 36 40  1  0
 40 41  1  0
 40 42  1  0
 13  5  1  0
 24 19  1  0
 33 31  1  0
 39 34  1  0
M  END
$$$$
