
     RDKit          3D

 42 45  0  0  0  0  0  0  0  0999 V2000
  -21.2257  -32.2818  -11.3263 C   0  0  0  0  0  0  0  0  0  0  0  0
  -21.5530  -33.7538  -11.5962 C   0  0  0  0  0  0  0  0  0  0  0  0
  -20.3345  -34.3858  -12.1971 C   0  0  0  0  0  0  0  0  0  0  0  0
  -20.5846  -35.4292  -13.1400 N   0  0  0  0  0  0  0  0  0  0  0  0
  -20.1189  -36.7359  -12.9415 C   0  0  0  0  0  0  0  0  0  0  0  0
  -20.5225  -37.7633  -13.7529 C   0  0  0  0  0  0  0  0  0  0  0  0
  -20.0491  -39.0411  -13.5700 C   0  0  0  0  0  0  0  0  0  0  0  0
  -20.4834  -40.1801  -14.4144 C   0  0  0  0  0  0  0  0  0  0  0  0
  -19.4823  -40.6593  -15.2482 O   0  0  0  0  0  0  0  0  0  0  0  0
  -20.0458  -40.8021  -16.5075 C   0  0  0  0  0  0  0  0  0  0  0  0
  -19.1501  -39.3012  -12.5521 C   0  0  0  0  0  0  0  0  0  0  0  0
  -18.7293  -38.3017  -11.7268 C   0  0  0  0  0  0  0  0  0  0  0  0
  -19.2046  -37.0312  -11.9133 C   0  0  0  0  0  0  0  0  0  0  0  0
  -17.7739  -38.5643  -10.6456 C   0  0  0  0  0  0  0  0  0  0  0  0
  -16.9693  -39.5536  -10.7806 O   0  0  0  0  0  0  0  0  0  0  0  0
  -17.6698  -37.8168   -9.4645 N   0  0  0  0  0  0  0  0  0  0  0  0
  -16.6664  -37.9312   -8.4276 C   0  0  1  0  0  0  0  0  0  0  0  0
  -15.9694  -36.6344   -8.3271 C   0  0  0  0  0  0  0  0  0  0  0  0
  -15.6476  -35.9314   -9.5624 C   0  0  0  0  0  0  0  0  0  0  0  0
  -14.5804  -36.3204  -10.3378 C   0  0  0  0  0  0  0  0  0  0  0  0
  -14.2456  -35.6513  -11.5290 C   0  0  0  0  0  0  0  0  0  0  0  0
  -14.9903  -34.5756  -11.9480 C   0  0  0  0  0  0  0  0  0  0  0  0
  -16.0628  -34.1781  -11.1770 C   0  0  0  0  0  0  0  0  0  0  0  0
  -16.3855  -34.8543   -9.9937 C   0  0  0  0  0  0  0  0  0  0  0  0
  -13.1643  -36.0789  -12.2754 O   0  0  0  0  0  0  0  0  0  0  0  0
  -12.4329  -37.2116  -11.8994 C   0  0  0  0  0  0  0  0  0  0  0  0
  -17.1824  -38.4966   -7.1216 C   0  0  2  0  0  0  0  0  0  0  0  0
  -16.0752  -38.9752   -6.4090 O   0  0  0  0  0  0  0  0  0  0  0  0
  -18.0366  -39.6840   -7.4670 C   0  0  0  0  0  0  0  0  0  0  0  0
  -18.7889  -40.2292   -6.3817 N   0  0  0  0  0  0  0  0  0  0  0  0
  -19.7573  -41.2367   -6.8415 C   0  0  0  0  0  0  0  0  0  0  0  0
  -19.3001  -42.0845   -8.0291 C   0  0  0  0  0  0  0  0  0  0  0  0
  -20.3768  -41.0627   -8.1875 C   0  0  0  0  0  0  0  0  0  0  0  0
  -20.5688  -41.9084   -5.8024 C   0  0  0  0  0  0  0  0  0  0  0  0
  -20.5786  -41.4607   -4.5010 C   0  0  0  0  0  0  0  0  0  0  0  0
  -21.3334  -42.0735   -3.5189 C   0  0  0  0  0  0  0  0  0  0  0  0
  -22.1098  -43.1686   -3.8202 C   0  0  0  0  0  0  0  0  0  0  0  0
  -22.1206  -43.6368   -5.1115 C   0  0  0  0  0  0  0  0  0  0  0  0
  -21.3460  -43.0007   -6.0970 C   0  0  0  0  0  0  0  0  0  0  0  0
  -21.3263  -41.5797   -2.1081 C   0  0  0  0  0  0  0  0  0  0  0  0
  -21.0671  -40.0976   -2.0845 C   0  0  0  0  0  0  0  0  0  0  0  0
  -20.1932  -42.2602   -1.3330 C   0  0  0  0  0  0  0  0  0  0  0  0
  1  2  1  0
  2  3  1  0
  3  4  1  0
  4  5  1  0
  5  6  2  0
  6  7  1  0
  7  8  1  0
  8  9  1  0
  9 10  1  0
  7 11  2  0
 11 12  1  0
 12 13  2  0
 12 14  1  0
 14 15  2  0
 14 16  1  0
 16 17  1  0
 17 18  1  1
 18 19  1  0
 19 20  2  0
 20 21  1  0
 21 22  2  0
 22 23  1  0
 23 24  2  0
 21 25  1  0
 25 26  1  0
 17 27  1  0
 27 28  1  1
 27 29  1  0
 29 30  1  0
 30 31  1  0
 31 32  1  0
 32 33  1  0
 31 34  1  0
 34 35  2  0
 35 36  1  0
 36 37  2  0
 37 38  1  0
 38 39  2  0
 36 40  1  0
 40 41  1  0
 40 42  1  0
 13  5  1  0
 24 19  1  0
 33 31  1  0
 39 34  1  0
M  END
$$$$
