
     RDKit          3D

 42 45  0  0  0  0  0  0  0  0999 V2000
  -20.9646  -45.2569  -10.7966 C   0  0  0  0  0  0  0  0  0  0  0  0
  -20.0076  -44.9748  -11.9591 C   0  0  0  0  0  0  0  0  0  0  0  0
  -19.5090  -43.5702  -11.8046 C   0  0  0  0  0  0  0  0  0  0  0  0
  -18.5808  -43.1344  -12.7989 N   0  0  0  0  0  0  0  0  0  0  0  0
  -17.3574  -42.5400  -12.4619 C   0  0  0  0  0  0  0  0  0  0  0  0
  -16.2575  -42.6758  -13.2674 C   0  0  0  0  0  0  0  0  0  0  0  0
  -15.0631  -42.0752  -12.9462 C   0  0  0  0  0  0  0  0  0  0  0  0
  -13.8476  -42.2214  -13.7828 C   0  0  0  0  0  0  0  0  0  0  0  0
  -12.6928  -41.7705  -13.1581 O   0  0  0  0  0  0  0  0  0  0  0  0
  -11.9511  -42.8956  -12.8296 C   0  0  0  0  0  0  0  0  0  0  0  0
  -14.9628  -41.3198  -11.7925 C   0  0  0  0  0  0  0  0  0  0  0  0
  -16.0378  -41.1657  -10.9691 C   0  0  0  0  0  0  0  0  0  0  0  0
  -17.2245  -41.7666  -11.2937 C   0  0  0  0  0  0  0  0  0  0  0  0
  -15.9448  -40.3646   -9.7442 C   0  0  0  0  0  0  0  0  0  0  0  0
  -14.8489  -40.4064   -9.0796 O   0  0  0  0  0  0  0  0  0  0  0  0
  -16.9666  -39.5517   -9.2349 N   0  0  0  0  0  0  0  0  0  0  0  0
  -16.8459  -38.4633   -8.2883 C   0  0  1  0  0  0  0  0  0  0  0  0
  -17.2280  -37.2171   -8.9802 C   0  0  0  0  0  0  0  0  0  0  0  0
  -16.7626  -37.0217  -10.3473 C   0  0  0  0  0  0  0  0  0  0  0  0
  -15.5214  -36.4860  -10.6001 C   0  0  0  0  0  0  0  0  0  0  0  0
  -15.0551  -36.2799  -11.9111 C   0  0  0  0  0  0  0  0  0  0  0  0
  -15.8451  -36.6138  -12.9841 C   0  0  0  0  0  0  0  0  0  0  0  0
  -17.0917  -37.1519  -12.7407 C   0  0  0  0  0  0  0  0  0  0  0  0
  -17.5428  -37.3528  -11.4301 C   0  0  0  0  0  0  0  0  0  0  0  0
  -13.8001  -35.7390  -12.1157 O   0  0  0  0  0  0  0  0  0  0  0  0
  -13.3917  -35.3302  -13.3906 C   0  0  0  0  0  0  0  0  0  0  0  0
  -17.5355  -38.7109   -6.9636 C   0  0  2  0  0  0  0  0  0  0  0  0
  -16.9881  -37.8154   -6.0357 O   0  0  0  0  0  0  0  0  0  0  0  0
  -17.1528  -40.0963   -6.5243 C   0  0  0  0  0  0  0  0  0  0  0  0
  -17.6756  -40.4995   -5.2573 N   0  0  0  0  0  0  0  0  0  0  0  0
  -18.7047  -41.5412   -5.3987 C   0  0  0  0  0  0  0  0  0  0  0  0
  -18.1724  -42.9687   -5.5284 C   0  0  0  0  0  0  0  0  0  0  0  0
  -18.7970  -42.2759   -6.6938 C   0  0  0  0  0  0  0  0  0  0  0  0
  -19.9577  -41.3523   -4.6346 C   0  0  0  0  0  0  0  0  0  0  0  0
  -21.0248  -42.2081   -4.7863 C   0  0  0  0  0  0  0  0  0  0  0  0
  -22.2008  -42.0487   -4.0780 C   0  0  0  0  0  0  0  0  0  0  0  0
  -22.3401  -41.0109   -3.1857 C   0  0  0  0  0  0  0  0  0  0  0  0
  -21.2906  -40.1417   -3.0128 C   0  0  0  0  0  0  0  0  0  0  0  0
  -20.1024  -40.3194   -3.7423 C   0  0  0  0  0  0  0  0  0  0  0  0
  -23.3537  -42.9824   -4.2608 C   0  0  0  0  0  0  0  0  0  0  0  0
  -22.9466  -44.1346   -5.1388 C   0  0  0  0  0  0  0  0  0  0  0  0
  -24.5009  -42.2482   -4.9627 C   0  0  0  0  0  0  0  0  0  0  0  0
  1  2  1  0
  2  3  1  0
  3  4  1  0
  4  5  1  0
  5  6  2  0
  6  7  1  0
  7  8  1  0
  8  9  1  0
  9 10  1  0
  7 11  2  0
 11 12  1  0
 12 13  2  0
 12 14  1  0
 14 15  2  0
 14 16  1  0
 16 17  1  0
 17 18  1  6
 18 19  1  0
 19 20  2  0
 20 21  1  0
 21 22  2  0
 22 23  1  0
 23 24  2  0
 21 25  1  0
 25 26  1  0
 17 27  1  0
 27 28  1  1
 27 29  1  0
 29 30  1  0
 30 31  1  0
 31 32  1  0
 32 33  1  0
 31 34  1  0
 34 35  2  0
 35 36  1  0
 36 37  2  0
 37 38  1  0
 38 39  2  0
 36 40  1  0
 40 41  1  0
 40 42  1  0
 13  5  1  0
 24 19  1  0
 33 31  1  0
 39 34  1  0
M  END
$$$$
