
     RDKit          3D

 42 45  0  0  0  0  0  0  0  0999 V2000
  -25.1576  -42.0742  -12.6743 C   0  0  0  0  0  0  0  0  0  0  0  0
  -23.7369  -41.5019  -12.7021 C   0  0  0  0  0  0  0  0  0  0  0  0
  -23.7101  -40.3117  -11.7922 C   0  0  0  0  0  0  0  0  0  0  0  0
  -22.5979  -40.2459  -10.8985 N   0  0  0  0  0  0  0  0  0  0  0  0
  -21.3796  -39.6627  -11.2720 C   0  0  0  0  0  0  0  0  0  0  0  0
  -21.2790  -38.8914  -12.3997 C   0  0  0  0  0  0  0  0  0  0  0  0
  -20.0881  -38.3029  -12.7542 C   0  0  0  0  0  0  0  0  0  0  0  0
  -19.9387  -37.4823  -13.9802 C   0  0  0  0  0  0  0  0  0  0  0  0
  -18.9894  -37.9797  -14.8624 O   0  0  0  0  0  0  0  0  0  0  0  0
  -19.6103  -38.9808  -15.5945 C   0  0  0  0  0  0  0  0  0  0  0  0
  -18.9687  -38.4880  -11.9639 C   0  0  0  0  0  0  0  0  0  0  0  0
  -19.0347  -39.2503  -10.8361 C   0  0  0  0  0  0  0  0  0  0  0  0
  -20.2233  -39.8344  -10.4884 C   0  0  0  0  0  0  0  0  0  0  0  0
  -17.8552  -39.4518   -9.9882 C   0  0  0  0  0  0  0  0  0  0  0  0
  -17.1626  -40.5166  -10.1639 O   0  0  0  0  0  0  0  0  0  0  0  0
  -17.4211  -38.5683   -8.9904 N   0  0  0  0  0  0  0  0  0  0  0  0
  -16.2695  -38.7049   -8.1243 C   0  0  1  0  0  0  0  0  0  0  0  0
  -15.4427  -37.4920   -8.2757 C   0  0  0  0  0  0  0  0  0  0  0  0
  -15.4099  -36.8432   -9.5803 C   0  0  0  0  0  0  0  0  0  0  0  0
  -16.0036  -35.6178   -9.7737 C   0  0  0  0  0  0  0  0  0  0  0  0
  -15.9923  -34.9771  -11.0260 C   0  0  0  0  0  0  0  0  0  0  0  0
  -15.3787  -35.5743  -12.1002 C   0  0  0  0  0  0  0  0  0  0  0  0
  -14.7803  -36.8034  -11.9160 C   0  0  0  0  0  0  0  0  0  0  0  0
  -14.7981  -37.4294  -10.6632 C   0  0  0  0  0  0  0  0  0  0  0  0
  -16.6019  -33.7457  -11.1720 O   0  0  0  0  0  0  0  0  0  0  0  0
  -17.0969  -33.3303  -12.4136 C   0  0  0  0  0  0  0  0  0  0  0  0
  -16.6044  -39.0915   -6.6995 C   0  0  2  0  0  0  0  0  0  0  0  0
  -15.4674  -39.7034   -6.1560 O   0  0  0  0  0  0  0  0  0  0  0  0
  -17.6810  -40.1377   -6.7725 C   0  0  0  0  0  0  0  0  0  0  0  0
  -17.9148  -40.8563   -5.5600 N   0  0  0  0  0  0  0  0  0  0  0  0
  -19.2952  -41.3590   -5.4819 C   0  0  0  0  0  0  0  0  0  0  0  0
  -19.7935  -42.0891   -6.7296 C   0  0  0  0  0  0  0  0  0  0  0  0
  -20.3258  -40.7425   -6.3670 C   0  0  0  0  0  0  0  0  0  0  0  0
  -19.7469  -41.8738   -4.1702 C   0  0  0  0  0  0  0  0  0  0  0  0
  -20.9374  -42.5516   -4.0384 C   0  0  0  0  0  0  0  0  0  0  0  0
  -21.3726  -43.0423   -2.8219 C   0  0  0  0  0  0  0  0  0  0  0  0
  -20.6142  -42.8631   -1.6882 C   0  0  0  0  0  0  0  0  0  0  0  0
  -19.4204  -42.1914   -1.7900 C   0  0  0  0  0  0  0  0  0  0  0  0
  -18.9943  -41.6990   -3.0357 C   0  0  0  0  0  0  0  0  0  0  0  0
  -22.6726  -43.7690   -2.6944 C   0  0  0  0  0  0  0  0  0  0  0  0
  -22.9772  -44.0248   -1.2432 C   0  0  0  0  0  0  0  0  0  0  0  0
  -22.5697  -45.1290   -3.3926 C   0  0  0  0  0  0  0  0  0  0  0  0
  1  2  1  0
  2  3  1  0
  3  4  1  0
  4  5  1  0
  5  6  2  0
  6  7  1  0
  7  8  1  0
  8  9  1  0
  9 10  1  0
  7 11  2  0
 11 12  1  0
 12 13  2  0
 12 14  1  0
 14 15  2  0
 14 16  1  0
 16 17  1  0
 17 18  1  1
 18 19  1  0
 19 20  2  0
 20 21  1  0
 21 22  2  0
 22 23  1  0
 23 24  2  0
 21 25  1  0
 25 26  1  0
 17 27  1  0
 27 28  1  6
 27 29  1  0
 29 30  1  0
 30 31  1  0
 31 32  1  0
 32 33  1  0
 31 34  1  0
 34 35  2  0
 35 36  1  0
 36 37  2  0
 37 38  1  0
 38 39  2  0
 36 40  1  0
 40 41  1  0
 40 42  1  0
 13  5  1  0
 24 19  1  0
 33 31  1  0
 39 34  1  0
M  END
$$$$
