
     RDKit          3D

 42 45  0  0  0  0  0  0  0  0999 V2000
  -22.6601  -41.7704   -2.2616 C   0  0  0  0  0  0  0  0  0  0  0  0
  -22.3262  -41.4736   -3.7269 C   0  0  0  0  0  0  0  0  0  0  0  0
  -22.6107  -42.7147   -4.5167 C   0  0  0  0  0  0  0  0  0  0  0  0
  -22.3963  -42.6100   -5.9250 N   0  0  0  0  0  0  0  0  0  0  0  0
  -21.2226  -43.0749   -6.5333 C   0  0  0  0  0  0  0  0  0  0  0  0
  -21.0145  -44.4128   -6.7425 C   0  0  0  0  0  0  0  0  0  0  0  0
  -19.8717  -44.8663   -7.3579 C   0  0  0  0  0  0  0  0  0  0  0  0
  -19.6041  -46.3081   -7.5782 C   0  0  0  0  0  0  0  0  0  0  0  0
  -19.3560  -46.6244   -8.9069 O   0  0  0  0  0  0  0  0  0  0  0  0
  -20.5878  -46.6721   -9.5427 C   0  0  0  0  0  0  0  0  0  0  0  0
  -18.9119  -43.9629   -7.7755 C   0  0  0  0  0  0  0  0  0  0  0  0
  -19.0878  -42.6255   -7.5816 C   0  0  0  0  0  0  0  0  0  0  0  0
  -20.2275  -42.1796   -6.9676 C   0  0  0  0  0  0  0  0  0  0  0  0
  -18.0785  -41.6572   -8.0226 C   0  0  0  0  0  0  0  0  0  0  0  0
  -17.5539  -41.8203   -9.1813 O   0  0  0  0  0  0  0  0  0  0  0  0
  -17.6346  -40.5595   -7.2726 N   0  0  0  0  0  0  0  0  0  0  0  0
  -17.1738  -39.2780   -7.7629 C   0  0  1  0  0  0  0  0  0  0  0  0
  -18.0944  -38.2419   -7.2564 C   0  0  0  0  0  0  0  0  0  0  0  0
  -19.5195  -38.4060   -7.5136 C   0  0  0  0  0  0  0  0  0  0  0  0
  -19.9950  -38.5265   -8.7985 C   0  0  0  0  0  0  0  0  0  0  0  0
  -21.3668  -38.6766   -9.0711 C   0  0  0  0  0  0  0  0  0  0  0  0
  -22.2752  -38.7045   -8.0409 C   0  0  0  0  0  0  0  0  0  0  0  0
  -21.8079  -38.5845   -6.7487 C   0  0  0  0  0  0  0  0  0  0  0  0
  -20.4390  -38.4367   -6.4917 C   0  0  0  0  0  0  0  0  0  0  0  0
  -21.7975  -38.7945  -10.3787 O   0  0  0  0  0  0  0  0  0  0  0  0
  -23.1329  -39.0937  -10.6724 C   0  0  0  0  0  0  0  0  0  0  0  0
  -15.7021  -39.0137   -7.5269 C   0  0  2  0  0  0  0  0  0  0  0  0
  -15.4264  -37.7295   -8.0145 O   0  0  0  0  0  0  0  0  0  0  0  0
  -14.9409  -39.9873   -8.3821 C   0  0  0  0  0  0  0  0  0  0  0  0
  -13.5186  -39.8623   -8.3286 N   0  0  0  0  0  0  0  0  0  0  0  0
  -12.8924  -40.2080   -9.6141 C   0  0  0  0  0  0  0  0  0  0  0  0
  -13.1735  -41.6251  -10.1149 C   0  0  0  0  0  0  0  0  0  0  0  0
  -11.8169  -41.2417   -9.6240 C   0  0  0  0  0  0  0  0  0  0  0  0
  -12.8115  -39.1344  -10.6293 C   0  0  0  0  0  0  0  0  0  0  0  0
  -12.3697  -37.8724  -10.3034 C   0  0  0  0  0  0  0  0  0  0  0  0
  -12.2843  -36.8593  -11.2395 C   0  0  0  0  0  0  0  0  0  0  0  0
  -12.6457  -37.0883  -12.5470 C   0  0  0  0  0  0  0  0  0  0  0  0
  -13.0892  -38.3391  -12.9015 C   0  0  0  0  0  0  0  0  0  0  0  0
  -13.1698  -39.3570  -11.9356 C   0  0  0  0  0  0  0  0  0  0  0  0
  -11.8103  -35.4915  -10.8670 C   0  0  0  0  0  0  0  0  0  0  0  0
  -12.9858  -34.6163  -10.5260 C   0  0  0  0  0  0  0  0  0  0  0  0
  -11.0910  -34.8560  -12.0613 C   0  0  0  0  0  0  0  0  0  0  0  0
  1  2  1  0
  2  3  1  0
  3  4  1  0
  4  5  1  0
  5  6  2  0
  6  7  1  0
  7  8  1  0
  8  9  1  0
  9 10  1  0
  7 11  2  0
 11 12  1  0
 12 13  2  0
 12 14  1  0
 14 15  2  0
 14 16  1  0
 16 17  1  0
 17 18  1  1
 18 19  1  0
 19 20  2  0
 20 21  1  0
 21 22  2  0
 22 23  1  0
 23 24  2  0
 21 25  1  0
 25 26  1  0
 17 27  1  0
 27 28  1  6
 27 29  1  0
 29 30  1  0
 30 31  1  0
 31 32  1  0
 32 33  1  0
 31 34  1  0
 34 35  2  0
 35 36  1  0
 36 37  2  0
 37 38  1  0
 38 39  2  0
 36 40  1  0
 40 41  1  0
 40 42  1  0
 13  5  1  0
 24 19  1  0
 33 31  1  0
 39 34  1  0
M  END
$$$$
