
     RDKit          3D

 42 45  0  0  0  0  0  0  0  0999 V2000
  -26.8322  -43.7009  -10.3367 C   0  0  0  0  0  0  0  0  0  0  0  0
  -25.5914  -42.9226  -10.7856 C   0  0  0  0  0  0  0  0  0  0  0  0
  -24.4176  -43.8493  -10.6933 C   0  0  0  0  0  0  0  0  0  0  0  0
  -23.1411  -43.2488  -10.9172 N   0  0  0  0  0  0  0  0  0  0  0  0
  -22.1310  -43.2693   -9.9461 C   0  0  0  0  0  0  0  0  0  0  0  0
  -22.0696  -44.2656   -9.0078 C   0  0  0  0  0  0  0  0  0  0  0  0
  -21.0663  -44.2960   -8.0682 C   0  0  0  0  0  0  0  0  0  0  0  0
  -20.9840  -45.3459   -7.0243 C   0  0  0  0  0  0  0  0  0  0  0  0
  -19.6838  -45.6236   -6.6253 O   0  0  0  0  0  0  0  0  0  0  0  0
  -19.1969  -46.5889   -7.4941 C   0  0  0  0  0  0  0  0  0  0  0  0
  -20.0994  -43.3077   -8.0640 C   0  0  0  0  0  0  0  0  0  0  0  0
  -20.1322  -42.3018   -8.9830 C   0  0  0  0  0  0  0  0  0  0  0  0
  -21.1341  -42.2764   -9.9160 C   0  0  0  0  0  0  0  0  0  0  0  0
  -19.1108  -41.2496   -8.9907 C   0  0  0  0  0  0  0  0  0  0  0  0
  -18.4777  -41.0333  -10.0847 O   0  0  0  0  0  0  0  0  0  0  0  0
  -18.7652  -40.4556   -7.8886 N   0  0  0  0  0  0  0  0  0  0  0  0
  -18.0804  -39.1804   -7.8936 C   0  0  1  0  0  0  0  0  0  0  0  0
  -18.8248  -38.2632   -7.0093 C   0  0  0  0  0  0  0  0  0  0  0  0
  -20.2810  -38.3093   -7.0434 C   0  0  0  0  0  0  0  0  0  0  0  0
  -20.9714  -37.9580   -8.1799 C   0  0  0  0  0  0  0  0  0  0  0  0
  -22.3768  -37.9861   -8.2330 C   0  0  0  0  0  0  0  0  0  0  0  0
  -23.1006  -38.3701   -7.1304 C   0  0  0  0  0  0  0  0  0  0  0  0
  -22.4171  -38.7244   -5.9858 C   0  0  0  0  0  0  0  0  0  0  0  0
  -21.0174  -38.6929   -5.9473 C   0  0  0  0  0  0  0  0  0  0  0  0
  -23.0266  -37.6247   -9.3976 O   0  0  0  0  0  0  0  0  0  0  0  0
  -24.3258  -37.1048   -9.3653 C   0  0  0  0  0  0  0  0  0  0  0  0
  -16.5920  -39.2720   -7.6330 C   0  0  2  0  0  0  0  0  0  0  0  0
  -16.0949  -37.9627   -7.5942 O   0  0  0  0  0  0  0  0  0  0  0  0
  -15.9798  -39.9451   -8.8292 C   0  0  0  0  0  0  0  0  0  0  0  0
  -14.5531  -40.0215   -8.8211 N   0  0  0  0  0  0  0  0  0  0  0  0
  -14.0133  -40.2771  -10.1656 C   0  0  0  0  0  0  0  0  0  0  0  0
  -14.4700  -39.2977  -11.2473 C   0  0  0  0  0  0  0  0  0  0  0  0
  -14.9560  -40.7091  -11.2381 C   0  0  0  0  0  0  0  0  0  0  0  0
  -12.6214  -40.7731  -10.2448 C   0  0  0  0  0  0  0  0  0  0  0  0
  -11.6662  -40.3738   -9.3381 C   0  0  0  0  0  0  0  0  0  0  0  0
  -10.3629  -40.8299   -9.3951 C   0  0  0  0  0  0  0  0  0  0  0  0
   -9.9770  -41.7116  -10.3782 C   0  0  0  0  0  0  0  0  0  0  0  0
  -10.9098  -42.1286  -11.2963 C   0  0  0  0  0  0  0  0  0  0  0  0
  -12.2306  -41.6535  -11.2227 C   0  0  0  0  0  0  0  0  0  0  0  0
   -9.3354  -40.3796   -8.4073 C   0  0  0  0  0  0  0  0  0  0  0  0
   -8.3886  -39.4082   -9.0586 C   0  0  0  0  0  0  0  0  0  0  0  0
   -8.5128  -41.5844   -7.9389 C   0  0  0  0  0  0  0  0  0  0  0  0
  1  2  1  0
  2  3  1  0
  3  4  1  0
  4  5  1  0
  5  6  2  0
  6  7  1  0
  7  8  1  0
  8  9  1  0
  9 10  1  0
  7 11  2  0
 11 12  1  0
 12 13  2  0
 12 14  1  0
 14 15  2  0
 14 16  1  0
 16 17  1  0
 17 18  1  1
 18 19  1  0
 19 20  2  0
 20 21  1  0
 21 22  2  0
 22 23  1  0
 23 24  2  0
 21 25  1  0
 25 26  1  0
 17 27  1  0
 27 28  1  6
 27 29  1  0
 29 30  1  0
 30 31  1  0
 31 32  1  0
 32 33  1  0
 31 34  1  0
 34 35  2  0
 35 36  1  0
 36 37  2  0
 37 38  1  0
 38 39  2  0
 36 40  1  0
 40 41  1  0
 40 42  1  0
 13  5  1  0
 24 19  1  0
 33 31  1  0
 39 34  1  0
M  END
$$$$
