
     RDKit          3D

 42 45  0  0  0  0  0  0  0  0999 V2000
  -24.1823  -47.3984   -9.2474 C   0  0  0  0  0  0  0  0  0  0  0  0
  -23.2636  -46.4749  -10.0537 C   0  0  0  0  0  0  0  0  0  0  0  0
  -22.3048  -45.8394   -9.0935 C   0  0  0  0  0  0  0  0  0  0  0  0
  -21.3286  -44.9770   -9.6797 N   0  0  0  0  0  0  0  0  0  0  0  0
  -21.2702  -43.6097   -9.3785 C   0  0  0  0  0  0  0  0  0  0  0  0
  -22.3853  -42.9246   -8.9736 C   0  0  0  0  0  0  0  0  0  0  0  0
  -22.3225  -41.5877   -8.6586 C   0  0  0  0  0  0  0  0  0  0  0  0
  -23.5144  -40.8110   -8.2402 C   0  0  0  0  0  0  0  0  0  0  0  0
  -24.0657  -41.2515   -7.0448 O   0  0  0  0  0  0  0  0  0  0  0  0
  -23.6793  -40.3449   -6.0688 C   0  0  0  0  0  0  0  0  0  0  0  0
  -21.1170  -40.9167   -8.7496 C   0  0  0  0  0  0  0  0  0  0  0  0
  -19.9893  -41.5686   -9.1502 C   0  0  0  0  0  0  0  0  0  0  0  0
  -20.0579  -42.8999   -9.4632 C   0  0  0  0  0  0  0  0  0  0  0  0
  -18.7043  -40.8687   -9.2480 C   0  0  0  0  0  0  0  0  0  0  0  0
  -18.1440  -40.7971  -10.3992 O   0  0  0  0  0  0  0  0  0  0  0  0
  -18.0313  -40.2685   -8.1750 N   0  0  0  0  0  0  0  0  0  0  0  0
  -16.8210  -39.4757   -8.2186 C   0  0  1  0  0  0  0  0  0  0  0  0
  -17.1663  -38.0996   -7.8127 C   0  0  0  0  0  0  0  0  0  0  0  0
  -18.2317  -37.4182   -8.5370 C   0  0  0  0  0  0  0  0  0  0  0  0
  -19.4612  -37.2142   -7.9556 C   0  0  0  0  0  0  0  0  0  0  0  0
  -20.5070  -36.5673   -8.6387 C   0  0  0  0  0  0  0  0  0  0  0  0
  -20.3180  -36.1200   -9.9238 C   0  0  0  0  0  0  0  0  0  0  0  0
  -19.0881  -36.3200  -10.5154 C   0  0  0  0  0  0  0  0  0  0  0  0
  -18.0552  -36.9647   -9.8230 C   0  0  0  0  0  0  0  0  0  0  0  0
  -21.7253  -36.3844   -8.0131 O   0  0  0  0  0  0  0  0  0  0  0  0
  -22.5430  -35.2947   -8.3341 C   0  0  0  0  0  0  0  0  0  0  0  0
  -15.6454  -40.0938   -7.4921 C   0  0  2  0  0  0  0  0  0  0  0  0
  -14.6208  -39.1385   -7.4704 O   0  0  0  0  0  0  0  0  0  0  0  0
  -15.1658  -41.2419   -8.3351 C   0  0  0  0  0  0  0  0  0  0  0  0
  -14.9083  -42.4538   -7.6236 N   0  0  0  0  0  0  0  0  0  0  0  0
  -14.6544  -43.5787   -8.5370 C   0  0  0  0  0  0  0  0  0  0  0  0
  -13.4507  -43.4055   -9.4639 C   0  0  0  0  0  0  0  0  0  0  0  0
  -14.8429  -43.3604  -10.0007 C   0  0  0  0  0  0  0  0  0  0  0  0
  -14.9166  -44.9379   -8.0141 C   0  0  0  0  0  0  0  0  0  0  0  0
  -15.1598  -45.1562   -6.6772 C   0  0  0  0  0  0  0  0  0  0  0  0
  -15.4102  -46.4181   -6.1724 C   0  0  0  0  0  0  0  0  0  0  0  0
  -15.4230  -47.5112   -7.0077 C   0  0  0  0  0  0  0  0  0  0  0  0
  -15.1848  -47.3232   -8.3473 C   0  0  0  0  0  0  0  0  0  0  0  0
  -14.9316  -46.0323   -8.8424 C   0  0  0  0  0  0  0  0  0  0  0  0
  -15.6641  -46.6391   -4.7161 C   0  0  0  0  0  0  0  0  0  0  0  0
  -15.6179  -48.1105   -4.4047 C   0  0  0  0  0  0  0  0  0  0  0  0
  -17.0656  -46.1339   -4.3581 C   0  0  0  0  0  0  0  0  0  0  0  0
  1  2  1  0
  2  3  1  0
  3  4  1  0
  4  5  1  0
  5  6  2  0
  6  7  1  0
  7  8  1  0
  8  9  1  0
  9 10  1  0
  7 11  2  0
 11 12  1  0
 12 13  2  0
 12 14  1  0
 14 15  2  0
 14 16  1  0
 16 17  1  0
 17 18  1  1
 18 19  1  0
 19 20  2  0
 20 21  1  0
 21 22  2  0
 22 23  1  0
 23 24  2  0
 21 25  1  0
 25 26  1  0
 17 27  1  0
 27 28  1  6
 27 29  1  0
 29 30  1  0
 30 31  1  0
 31 32  1  0
 32 33  1  0
 31 34  1  0
 34 35  2  0
 35 36  1  0
 36 37  2  0
 37 38  1  0
 38 39  2  0
 36 40  1  0
 40 41  1  0
 40 42  1  0
 13  5  1  0
 24 19  1  0
 33 31  1  0
 39 34  1  0
M  END
$$$$
