
     RDKit          3D

 42 45  0  0  0  0  0  0  0  0999 V2000
  -23.6830  -41.9803  -11.6763 C   0  0  0  0  0  0  0  0  0  0  0  0
  -23.1248  -41.0359  -12.7457 C   0  0  0  0  0  0  0  0  0  0  0  0
  -22.2637  -40.0248  -12.0520 C   0  0  0  0  0  0  0  0  0  0  0  0
  -21.5841  -39.1052  -12.9080 N   0  0  0  0  0  0  0  0  0  0  0  0
  -20.3691  -38.5104  -12.5422 C   0  0  0  0  0  0  0  0  0  0  0  0
  -19.9908  -37.2975  -13.0548 C   0  0  0  0  0  0  0  0  0  0  0  0
  -18.8081  -36.7052  -12.6796 C   0  0  0  0  0  0  0  0  0  0  0  0
  -18.3575  -35.4054  -13.2328 C   0  0  0  0  0  0  0  0  0  0  0  0
  -17.8016  -35.5105  -14.5005 O   0  0  0  0  0  0  0  0  0  0  0  0
  -16.4395  -35.2905  -14.3588 C   0  0  0  0  0  0  0  0  0  0  0  0
  -17.9814  -37.3383  -11.7699 C   0  0  0  0  0  0  0  0  0  0  0  0
  -18.3279  -38.5460  -11.2419 C   0  0  0  0  0  0  0  0  0  0  0  0
  -19.5066  -39.1314  -11.6197 C   0  0  0  0  0  0  0  0  0  0  0  0
  -17.4610  -39.2260  -10.2741 C   0  0  0  0  0  0  0  0  0  0  0  0
  -17.5794  -40.4967  -10.1489 O   0  0  0  0  0  0  0  0  0  0  0  0
  -16.5066  -38.5938   -9.4653 N   0  0  0  0  0  0  0  0  0  0  0  0
  -15.6485  -39.1976   -8.4683 C   0  0  1  0  0  0  0  0  0  0  0  0
  -14.2978  -38.6247   -8.6266 C   0  0  0  0  0  0  0  0  0  0  0  0
  -13.7616  -38.4961   -9.9756 C   0  0  0  0  0  0  0  0  0  0  0  0
  -13.2066  -39.5770  -10.6199 C   0  0  0  0  0  0  0  0  0  0  0  0
  -12.6746  -39.4743  -11.9181 C   0  0  0  0  0  0  0  0  0  0  0  0
  -12.6978  -38.2703  -12.5791 C   0  0  0  0  0  0  0  0  0  0  0  0
  -13.2526  -37.1804  -11.9411 C   0  0  0  0  0  0  0  0  0  0  0  0
  -13.7796  -37.2973  -10.6487 C   0  0  0  0  0  0  0  0  0  0  0  0
  -12.1276  -40.5883  -12.5255 O   0  0  0  0  0  0  0  0  0  0  0  0
  -12.0780  -41.8191  -11.8607 C   0  0  0  0  0  0  0  0  0  0  0  0
  -16.2093  -39.1655   -7.0625 C   0  0  2  0  0  0  0  0  0  0  0  0
  -15.4442  -40.0482   -6.2890 O   0  0  0  0  0  0  0  0  0  0  0  0
  -17.6009  -39.7284   -7.1345 C   0  0  0  0  0  0  0  0  0  0  0  0
  -18.1776  -40.0892   -5.8781 N   0  0  0  0  0  0  0  0  0  0  0  0
  -19.6223  -40.3413   -5.9937 C   0  0  0  0  0  0  0  0  0  0  0  0
  -20.0557  -41.0726   -7.2647 C   0  0  0  0  0  0  0  0  0  0  0  0
  -20.3832  -39.6304   -7.0620 C   0  0  0  0  0  0  0  0  0  0  0  0
  -20.3472  -40.6655   -4.7451 C   0  0  0  0  0  0  0  0  0  0  0  0
  -21.0107  -41.8615   -4.5922 C   0  0  0  0  0  0  0  0  0  0  0  0
  -21.6895  -42.1820   -3.4318 C   0  0  0  0  0  0  0  0  0  0  0  0
  -21.7217  -41.2979   -2.3782 C   0  0  0  0  0  0  0  0  0  0  0  0
  -21.0670  -40.0968   -2.5020 C   0  0  0  0  0  0  0  0  0  0  0  0
  -20.3823  -39.7880   -3.6901 C   0  0  0  0  0  0  0  0  0  0  0  0
  -22.4123  -43.4821   -3.2851 C   0  0  0  0  0  0  0  0  0  0  0  0
  -23.6656  -43.4692   -4.1177 C   0  0  0  0  0  0  0  0  0  0  0  0
  -22.8296  -43.6740   -1.8233 C   0  0  0  0  0  0  0  0  0  0  0  0
  1  2  1  0
  2  3  1  0
  3  4  1  0
  4  5  1  0
  5  6  2  0
  6  7  1  0
  7  8  1  0
  8  9  1  0
  9 10  1  0
  7 11  2  0
 11 12  1  0
 12 13  2  0
 12 14  1  0
 14 15  2  0
 14 16  1  0
 16 17  1  0
 17 18  1  1
 18 19  1  0
 19 20  2  0
 20 21  1  0
 21 22  2  0
 22 23  1  0
 23 24  2  0
 21 25  1  0
 25 26  1  0
 17 27  1  0
 27 28  1  1
 27 29  1  0
 29 30  1  0
 30 31  1  0
 31 32  1  0
 32 33  1  0
 31 34  1  0
 34 35  2  0
 35 36  1  0
 36 37  2  0
 37 38  1  0
 38 39  2  0
 36 40  1  0
 40 41  1  0
 40 42  1  0
 13  5  1  0
 24 19  1  0
 33 31  1  0
 39 34  1  0
M  END
$$$$
