
     RDKit          3D

 42 45  0  0  0  0  0  0  0  0999 V2000
  -20.1658  -49.0256   -4.9042 C   0  0  0  0  0  0  0  0  0  0  0  0
  -19.4710  -47.8164   -5.5382 C   0  0  0  0  0  0  0  0  0  0  0  0
  -20.1384  -47.5484   -6.8527 C   0  0  0  0  0  0  0  0  0  0  0  0
  -19.5805  -46.4797   -7.6189 N   0  0  0  0  0  0  0  0  0  0  0  0
  -19.7872  -45.1362   -7.2784 C   0  0  0  0  0  0  0  0  0  0  0  0
  -20.7758  -44.7706   -6.4032 C   0  0  0  0  0  0  0  0  0  0  0  0
  -20.9644  -43.4542   -6.0541 C   0  0  0  0  0  0  0  0  0  0  0  0
  -22.0394  -43.0216   -5.1288 C   0  0  0  0  0  0  0  0  0  0  0  0
  -22.3932  -41.6881   -5.2823 O   0  0  0  0  0  0  0  0  0  0  0  0
  -23.3986  -41.4331   -4.3614 C   0  0  0  0  0  0  0  0  0  0  0  0
  -20.1466  -42.4773   -6.5913 C   0  0  0  0  0  0  0  0  0  0  0  0
  -19.1546  -42.8074   -7.4655 C   0  0  0  0  0  0  0  0  0  0  0  0
  -18.9717  -44.1199   -7.8100 C   0  0  0  0  0  0  0  0  0  0  0  0
  -18.2788  -41.7808   -8.0398 C   0  0  0  0  0  0  0  0  0  0  0  0
  -17.1920  -42.1632   -8.6028 O   0  0  0  0  0  0  0  0  0  0  0  0
  -18.5341  -40.4027   -8.0206 N   0  0  0  0  0  0  0  0  0  0  0  0
  -17.6549  -39.3437   -7.5728 C   0  0  1  0  0  0  0  0  0  0  0  0
  -18.4798  -38.3298   -6.8878 C   0  0  0  0  0  0  0  0  0  0  0  0
  -19.9051  -38.2884   -7.1886 C   0  0  0  0  0  0  0  0  0  0  0  0
  -20.8377  -38.6131   -6.2312 C   0  0  0  0  0  0  0  0  0  0  0  0
  -22.2179  -38.5891   -6.5015 C   0  0  0  0  0  0  0  0  0  0  0  0
  -22.6698  -38.2363   -7.7499 C   0  0  0  0  0  0  0  0  0  0  0  0
  -21.7421  -37.9089   -8.7167 C   0  0  0  0  0  0  0  0  0  0  0  0
  -20.3706  -37.9359   -8.4335 C   0  0  0  0  0  0  0  0  0  0  0  0
  -23.1175  -38.9229   -5.5072 O   0  0  0  0  0  0  0  0  0  0  0  0
  -24.4891  -39.0033   -5.7749 C   0  0  0  0  0  0  0  0  0  0  0  0
  -16.4422  -39.8243   -6.8047 C   0  0  2  0  0  0  0  0  0  0  0  0
  -15.8579  -38.7014   -6.2043 O   0  0  0  0  0  0  0  0  0  0  0  0
  -15.4629  -40.3476   -7.8177 C   0  0  0  0  0  0  0  0  0  0  0  0
  -14.3164  -41.0040   -7.2737 N   0  0  0  0  0  0  0  0  0  0  0  0
  -13.4425  -41.5388   -8.3294 C   0  0  0  0  0  0  0  0  0  0  0  0
  -11.9718  -41.1342   -8.2239 C   0  0  0  0  0  0  0  0  0  0  0  0
  -12.8416  -40.5832   -9.3046 C   0  0  0  0  0  0  0  0  0  0  0  0
  -13.7358  -42.9066   -8.8119 C   0  0  0  0  0  0  0  0  0  0  0  0
  -13.9562  -43.1635  -10.1459 C   0  0  0  0  0  0  0  0  0  0  0  0
  -14.2275  -44.4351  -10.6142 C   0  0  0  0  0  0  0  0  0  0  0  0
  -14.2864  -45.4989   -9.7438 C   0  0  0  0  0  0  0  0  0  0  0  0
  -14.0692  -45.2725   -8.4065 C   0  0  0  0  0  0  0  0  0  0  0  0
  -13.7950  -43.9722   -7.9486 C   0  0  0  0  0  0  0  0  0  0  0  0
  -14.4730  -44.6956  -12.0655 C   0  0  0  0  0  0  0  0  0  0  0  0
  -13.2412  -44.3612  -12.8623 C   0  0  0  0  0  0  0  0  0  0  0  0
  -15.6059  -43.7922  -12.5635 C   0  0  0  0  0  0  0  0  0  0  0  0
  1  2  1  0
  2  3  1  0
  3  4  1  0
  4  5  1  0
  5  6  2  0
  6  7  1  0
  7  8  1  0
  8  9  1  0
  9 10  1  0
  7 11  2  0
 11 12  1  0
 12 13  2  0
 12 14  1  0
 14 15  2  0
 14 16  1  0
 16 17  1  0
 17 18  1  1
 18 19  1  0
 19 20  2  0
 20 21  1  0
 21 22  2  0
 22 23  1  0
 23 24  2  0
 21 25  1  0
 25 26  1  0
 17 27  1  0
 27 28  1  6
 27 29  1  0
 29 30  1  0
 30 31  1  0
 31 32  1  0
 32 33  1  0
 31 34  1  0
 34 35  2  0
 35 36  1  0
 36 37  2  0
 37 38  1  0
 38 39  2  0
 36 40  1  0
 40 41  1  0
 40 42  1  0
 13  5  1  0
 24 19  1  0
 33 31  1  0
 39 34  1  0
M  END
$$$$
