
     RDKit          3D

 42 45  0  0  0  0  0  0  0  0999 V2000
  -13.1883  -45.3971  -13.1473 C   0  0  0  0  0  0  0  0  0  0  0  0
  -14.7104  -45.5151  -13.0200 C   0  0  0  0  0  0  0  0  0  0  0  0
  -15.0100  -46.0577  -11.6558 C   0  0  0  0  0  0  0  0  0  0  0  0
  -15.0342  -45.0934  -10.6024 N   0  0  0  0  0  0  0  0  0  0  0  0
  -16.2232  -44.7317   -9.9549 C   0  0  0  0  0  0  0  0  0  0  0  0
  -17.1700  -45.6690   -9.6355 C   0  0  0  0  0  0  0  0  0  0  0  0
  -18.3270  -45.3161   -8.9819 C   0  0  0  0  0  0  0  0  0  0  0  0
  -19.3825  -46.3009   -8.6428 C   0  0  0  0  0  0  0  0  0  0  0  0
  -19.8389  -46.1897   -7.3366 O   0  0  0  0  0  0  0  0  0  0  0  0
  -18.8564  -46.7336   -6.5225 C   0  0  0  0  0  0  0  0  0  0  0  0
  -18.5457  -43.9949   -8.6379 C   0  0  0  0  0  0  0  0  0  0  0  0
  -17.6244  -43.0378   -8.9419 C   0  0  0  0  0  0  0  0  0  0  0  0
  -16.4742  -43.3950   -9.5934 C   0  0  0  0  0  0  0  0  0  0  0  0
  -17.8434  -41.6337   -8.5798 C   0  0  0  0  0  0  0  0  0  0  0  0
  -19.0517  -41.2078   -8.5251 O   0  0  0  0  0  0  0  0  0  0  0  0
  -16.8300  -40.7103   -8.2886 N   0  0  0  0  0  0  0  0  0  0  0  0
  -16.9153  -39.5352   -7.4478 C   0  0  1  0  0  0  0  0  0  0  0  0
  -17.5243  -39.9390   -6.1657 C   0  0  0  0  0  0  0  0  0  0  0  0
  -18.7498  -40.7266   -6.2069 C   0  0  0  0  0  0  0  0  0  0  0  0
  -19.9105  -40.2553   -5.6393 C   0  0  0  0  0  0  0  0  0  0  0  0
  -21.1026  -41.0018   -5.6590 C   0  0  0  0  0  0  0  0  0  0  0  0
  -21.1311  -42.2394   -6.2546 C   0  0  0  0  0  0  0  0  0  0  0  0
  -19.9719  -42.7206   -6.8267 C   0  0  0  0  0  0  0  0  0  0  0  0
  -18.7922  -41.9660   -6.8008 C   0  0  0  0  0  0  0  0  0  0  0  0
  -22.2444  -40.4865   -5.0759 O   0  0  0  0  0  0  0  0  0  0  0  0
  -23.4632  -40.4783   -5.7642 C   0  0  0  0  0  0  0  0  0  0  0  0
  -15.6237  -38.7532   -7.3379 C   0  0  2  0  0  0  0  0  0  0  0  0
  -15.8730  -37.6525   -6.5079 O   0  0  0  0  0  0  0  0  0  0  0  0
  -15.3198  -38.2171   -8.7088 C   0  0  0  0  0  0  0  0  0  0  0  0
  -16.2111  -37.2037   -9.1776 N   0  0  0  0  0  0  0  0  0  0  0  0
  -16.0406  -36.9512  -10.6168 C   0  0  0  0  0  0  0  0  0  0  0  0
  -15.1122  -37.9252  -11.3430 C   0  0  0  0  0  0  0  0  0  0  0  0
  -14.7021  -36.5096  -11.1059 C   0  0  0  0  0  0  0  0  0  0  0  0
  -17.2272  -36.4673  -11.3567 C   0  0  0  0  0  0  0  0  0  0  0  0
  -18.4086  -37.1732  -11.3556 C   0  0  0  0  0  0  0  0  0  0  0  0
  -19.5275  -36.7341  -12.0378 C   0  0  0  0  0  0  0  0  0  0  0  0
  -19.4904  -35.5579  -12.7504 C   0  0  0  0  0  0  0  0  0  0  0  0
  -18.3247  -34.8315  -12.7682 C   0  0  0  0  0  0  0  0  0  0  0  0
  -17.1967  -35.2942  -12.0686 C   0  0  0  0  0  0  0  0  0  0  0  0
  -20.8006  -37.5173  -12.0334 C   0  0  0  0  0  0  0  0  0  0  0  0
  -21.3313  -37.6260  -10.6296 C   0  0  0  0  0  0  0  0  0  0  0  0
  -20.5292  -38.9387  -12.5372 C   0  0  0  0  0  0  0  0  0  0  0  0
  1  2  1  0
  2  3  1  0
  3  4  1  0
  4  5  1  0
  5  6  2  0
  6  7  1  0
  7  8  1  0
  8  9  1  0
  9 10  1  0
  7 11  2  0
 11 12  1  0
 12 13  2  0
 12 14  1  0
 14 15  2  0
 14 16  1  0
 16 17  1  0
 17 18  1  1
 18 19  1  0
 19 20  2  0
 20 21  1  0
 21 22  2  0
 22 23  1  0
 23 24  2  0
 21 25  1  0
 25 26  1  0
 17 27  1  0
 27 28  1  1
 27 29  1  0
 29 30  1  0
 30 31  1  0
 31 32  1  0
 32 33  1  0
 31 34  1  0
 34 35  2  0
 35 36  1  0
 36 37  2  0
 37 38  1  0
 38 39  2  0
 36 40  1  0
 40 41  1  0
 40 42  1  0
 13  5  1  0
 24 19  1  0
 33 31  1  0
 39 34  1  0
M  END
$$$$
