
     RDKit          3D

 42 45  0  0  0  0  0  0  0  0999 V2000
  -12.7313  -41.0298  -17.4538 C   0  0  0  0  0  0  0  0  0  0  0  0
  -13.7223  -39.8661  -17.3506 C   0  0  0  0  0  0  0  0  0  0  0  0
  -13.6080  -39.2951  -15.9700 C   0  0  0  0  0  0  0  0  0  0  0  0
  -14.6132  -38.3454  -15.6123 N   0  0  0  0  0  0  0  0  0  0  0  0
  -14.6405  -37.7332  -14.3521 C   0  0  0  0  0  0  0  0  0  0  0  0
  -14.5655  -36.3713  -14.2238 C   0  0  0  0  0  0  0  0  0  0  0  0
  -14.6130  -35.7704  -12.9880 C   0  0  0  0  0  0  0  0  0  0  0  0
  -14.5105  -34.3016  -12.8119 C   0  0  0  0  0  0  0  0  0  0  0  0
  -13.5894  -33.9271  -11.8432 O   0  0  0  0  0  0  0  0  0  0  0  0
  -12.6148  -33.1789  -12.4869 C   0  0  0  0  0  0  0  0  0  0  0  0
  -14.7386  -36.5472  -11.8511 C   0  0  0  0  0  0  0  0  0  0  0  0
  -14.8147  -37.9047  -11.9440 C   0  0  0  0  0  0  0  0  0  0  0  0
  -14.7663  -38.4977  -13.1773 C   0  0  0  0  0  0  0  0  0  0  0  0
  -14.9510  -38.7393  -10.7459 C   0  0  0  0  0  0  0  0  0  0  0  0
  -13.8969  -38.9784  -10.0560 O   0  0  0  0  0  0  0  0  0  0  0  0
  -16.1503  -39.3042  -10.2909 N   0  0  0  0  0  0  0  0  0  0  0  0
  -16.6146  -39.4195   -8.9248 C   0  0  1  0  0  0  0  0  0  0  0  0
  -18.0449  -39.0572   -8.9007 C   0  0  0  0  0  0  0  0  0  0  0  0
  -18.5302  -38.1141   -9.9002 C   0  0  0  0  0  0  0  0  0  0  0  0
  -19.2842  -38.5433  -10.9674 C   0  0  0  0  0  0  0  0  0  0  0  0
  -19.7555  -37.6527  -11.9489 C   0  0  0  0  0  0  0  0  0  0  0  0
  -19.4652  -36.3129  -11.8604 C   0  0  0  0  0  0  0  0  0  0  0  0
  -18.7096  -35.8729  -10.7935 C   0  0  0  0  0  0  0  0  0  0  0  0
  -18.2478  -36.7707   -9.8227 C   0  0  0  0  0  0  0  0  0  0  0  0
  -20.5102  -38.1304  -13.0031 O   0  0  0  0  0  0  0  0  0  0  0  0
  -21.4386  -37.3095  -13.6538 C   0  0  0  0  0  0  0  0  0  0  0  0
  -16.2635  -40.7316   -8.2565 C   0  0  2  0  0  0  0  0  0  0  0  0
  -16.4542  -40.5612   -6.8791 O   0  0  0  0  0  0  0  0  0  0  0  0
  -14.7938  -40.9550   -8.4780 C   0  0  0  0  0  0  0  0  0  0  0  0
  -14.3506  -42.3027   -8.3098 N   0  0  0  0  0  0  0  0  0  0  0  0
  -12.9088  -42.4387   -8.5687 C   0  0  0  0  0  0  0  0  0  0  0  0
  -12.5400  -42.8642   -9.9903 C   0  0  0  0  0  0  0  0  0  0  0  0
  -12.3622  -43.7998   -8.8408 C   0  0  0  0  0  0  0  0  0  0  0  0
  -12.0141  -41.4693   -7.8982 C   0  0  0  0  0  0  0  0  0  0  0  0
  -11.1999  -40.6276   -8.6212 C   0  0  0  0  0  0  0  0  0  0  0  0
  -10.3612  -39.7140   -8.0116 C   0  0  0  0  0  0  0  0  0  0  0  0
  -10.3156  -39.6191   -6.6399 C   0  0  0  0  0  0  0  0  0  0  0  0
  -11.1184  -40.4460   -5.8924 C   0  0  0  0  0  0  0  0  0  0  0  0
  -11.9648  -41.3694   -6.5301 C   0  0  0  0  0  0  0  0  0  0  0  0
   -9.4768  -38.8127   -8.8115 C   0  0  0  0  0  0  0  0  0  0  0  0
   -9.7864  -37.3750   -8.4929 C   0  0  0  0  0  0  0  0  0  0  0  0
   -9.7464  -39.0243  -10.3049 C   0  0  0  0  0  0  0  0  0  0  0  0
  1  2  1  0
  2  3  1  0
  3  4  1  0
  4  5  1  0
  5  6  2  0
  6  7  1  0
  7  8  1  0
  8  9  1  0
  9 10  1  0
  7 11  2  0
 11 12  1  0
 12 13  2  0
 12 14  1  0
 14 15  2  0
 14 16  1  0
 16 17  1  0
 17 18  1  6
 18 19  1  0
 19 20  2  0
 20 21  1  0
 21 22  2  0
 22 23  1  0
 23 24  2  0
 21 25  1  0
 25 26  1  0
 17 27  1  0
 27 28  1  1
 27 29  1  0
 29 30  1  0
 30 31  1  0
 31 32  1  0
 32 33  1  0
 31 34  1  0
 34 35  2  0
 35 36  1  0
 36 37  2  0
 37 38  1  0
 38 39  2  0
 36 40  1  0
 40 41  1  0
 40 42  1  0
 13  5  1  0
 24 19  1  0
 33 31  1  0
 39 34  1  0
M  END
$$$$
