
     RDKit          3D

 42 45  0  0  0  0  0  0  0  0999 V2000
  -22.9407  -44.1476  -10.5466 C   0  0  0  0  0  0  0  0  0  0  0  0
  -22.9665  -42.6394  -10.2789 C   0  0  0  0  0  0  0  0  0  0  0  0
  -22.5701  -41.9474  -11.5474 C   0  0  0  0  0  0  0  0  0  0  0  0
  -22.5245  -40.5213  -11.4815 N   0  0  0  0  0  0  0  0  0  0  0  0
  -21.3243  -39.8104  -11.6155 C   0  0  0  0  0  0  0  0  0  0  0  0
  -21.2199  -38.7521  -12.4791 C   0  0  0  0  0  0  0  0  0  0  0  0
  -20.0479  -38.0424  -12.5947 C   0  0  0  0  0  0  0  0  0  0  0  0
  -19.8935  -36.9075  -13.5365 C   0  0  0  0  0  0  0  0  0  0  0  0
  -19.2690  -37.2604  -14.7250 O   0  0  0  0  0  0  0  0  0  0  0  0
  -18.1980  -36.3938  -14.8860 C   0  0  0  0  0  0  0  0  0  0  0  0
  -18.9521  -38.3970  -11.8297 C   0  0  0  0  0  0  0  0  0  0  0  0
  -19.0226  -39.4454  -10.9618 C   0  0  0  0  0  0  0  0  0  0  0  0
  -20.1921  -40.1488  -10.8512 C   0  0  0  0  0  0  0  0  0  0  0  0
  -17.8682  -39.8293  -10.1429 C   0  0  0  0  0  0  0  0  0  0  0  0
  -17.5502  -41.0707  -10.0955 O   0  0  0  0  0  0  0  0  0  0  0  0
  -17.0787  -38.9420   -9.3987 N   0  0  0  0  0  0  0  0  0  0  0  0
  -15.9217  -39.2516   -8.5860 C   0  0  1  0  0  0  0  0  0  0  0  0
  -14.8498  -38.3027   -8.9443 C   0  0  0  0  0  0  0  0  0  0  0  0
  -14.5272  -38.1338  -10.3554 C   0  0  0  0  0  0  0  0  0  0  0  0
  -15.1793  -37.1952  -11.1205 C   0  0  0  0  0  0  0  0  0  0  0  0
  -14.8911  -37.0208  -12.4863 C   0  0  0  0  0  0  0  0  0  0  0  0
  -13.9367  -37.7997  -13.0942 C   0  0  0  0  0  0  0  0  0  0  0  0
  -13.2771  -38.7438  -12.3350 C   0  0  0  0  0  0  0  0  0  0  0  0
  -13.5734  -38.9059  -10.9757 C   0  0  0  0  0  0  0  0  0  0  0  0
  -15.5722  -36.0642  -13.2144 O   0  0  0  0  0  0  0  0  0  0  0  0
  -14.9809  -34.8314  -13.5139 C   0  0  0  0  0  0  0  0  0  0  0  0
  -16.2152  -39.3745   -7.1061 C   0  0  2  0  0  0  0  0  0  0  0  0
  -15.0024  -39.6546   -6.4631 O   0  0  0  0  0  0  0  0  0  0  0  0
  -17.0984  -40.5785   -6.9345 C   0  0  0  0  0  0  0  0  0  0  0  0
  -17.5737  -40.8006   -5.6057 N   0  0  0  0  0  0  0  0  0  0  0  0
  -18.7391  -41.6982   -5.5866 C   0  0  0  0  0  0  0  0  0  0  0  0
  -18.4106  -43.1916   -5.5945 C   0  0  0  0  0  0  0  0  0  0  0  0
  -19.0109  -42.5335   -6.7923 C   0  0  0  0  0  0  0  0  0  0  0  0
  -19.9043  -41.2653   -4.7839 C   0  0  0  0  0  0  0  0  0  0  0  0
  -20.9663  -40.6067   -5.3606 C   0  0  0  0  0  0  0  0  0  0  0  0
  -22.0640  -40.1987   -4.6268 C   0  0  0  0  0  0  0  0  0  0  0  0
  -22.1265  -40.4435   -3.2744 C   0  0  0  0  0  0  0  0  0  0  0  0
  -21.0813  -41.1004   -2.6720 C   0  0  0  0  0  0  0  0  0  0  0  0
  -19.9730  -41.5074   -3.4345 C   0  0  0  0  0  0  0  0  0  0  0  0
  -23.2054  -39.4768   -5.2673 C   0  0  0  0  0  0  0  0  0  0  0  0
  -22.9766  -37.9912   -5.1982 C   0  0  0  0  0  0  0  0  0  0  0  0
  -24.4979  -39.7821   -4.5031 C   0  0  0  0  0  0  0  0  0  0  0  0
  1  2  1  0
  2  3  1  0
  3  4  1  0
  4  5  1  0
  5  6  2  0
  6  7  1  0
  7  8  1  0
  8  9  1  0
  9 10  1  0
  7 11  2  0
 11 12  1  0
 12 13  2  0
 12 14  1  0
 14 15  2  0
 14 16  1  0
 16 17  1  0
 17 18  1  1
 18 19  1  0
 19 20  2  0
 20 21  1  0
 21 22  2  0
 22 23  1  0
 23 24  2  0
 21 25  1  0
 25 26  1  0
 17 27  1  0
 27 28  1  1
 27 29  1  0
 29 30  1  0
 30 31  1  0
 31 32  1  0
 32 33  1  0
 31 34  1  0
 34 35  2  0
 35 36  1  0
 36 37  2  0
 37 38  1  0
 38 39  2  0
 36 40  1  0
 40 41  1  0
 40 42  1  0
 13  5  1  0
 24 19  1  0
 33 31  1  0
 39 34  1  0
M  END
$$$$
