
     RDKit          3D

 42 45  0  0  0  0  0  0  0  0999 V2000
  -23.0029  -40.1745   -3.8619 C   0  0  0  0  0  0  0  0  0  0  0  0
  -22.4787  -41.5979   -4.0759 C   0  0  0  0  0  0  0  0  0  0  0  0
  -22.9211  -42.0438   -5.4363 C   0  0  0  0  0  0  0  0  0  0  0  0
  -22.4750  -43.3413   -5.8333 N   0  0  0  0  0  0  0  0  0  0  0  0
  -21.3540  -43.5211   -6.6548 C   0  0  0  0  0  0  0  0  0  0  0  0
  -21.0056  -44.7629   -7.1170 C   0  0  0  0  0  0  0  0  0  0  0  0
  -19.9175  -44.9353   -7.9396 C   0  0  0  0  0  0  0  0  0  0  0  0
  -19.4989  -46.2676   -8.4382 C   0  0  0  0  0  0  0  0  0  0  0  0
  -19.2017  -47.1661   -7.4226 O   0  0  0  0  0  0  0  0  0  0  0  0
  -17.8187  -47.2364   -7.3437 C   0  0  0  0  0  0  0  0  0  0  0  0
  -19.1572  -43.8417   -8.3108 C   0  0  0  0  0  0  0  0  0  0  0  0
  -19.4761  -42.5931   -7.8675 C   0  0  0  0  0  0  0  0  0  0  0  0
  -20.5605  -42.4274   -7.0481 C   0  0  0  0  0  0  0  0  0  0  0  0
  -18.6793  -41.4250   -8.2565 C   0  0  0  0  0  0  0  0  0  0  0  0
  -18.2819  -41.3457   -9.4732 O   0  0  0  0  0  0  0  0  0  0  0  0
  -18.3110  -40.3800   -7.3981 N   0  0  0  0  0  0  0  0  0  0  0  0
  -17.6235  -39.1526   -7.7385 C   0  0  1  0  0  0  0  0  0  0  0  0
  -18.5688  -38.0359   -7.5461 C   0  0  0  0  0  0  0  0  0  0  0  0
  -19.8695  -38.1187   -8.1983 C   0  0  0  0  0  0  0  0  0  0  0  0
  -19.9664  -38.2689   -9.5620 C   0  0  0  0  0  0  0  0  0  0  0  0
  -21.2107  -38.3419  -10.2140 C   0  0  0  0  0  0  0  0  0  0  0  0
  -22.3746  -38.2614   -9.4887 C   0  0  0  0  0  0  0  0  0  0  0  0
  -22.2876  -38.1108   -8.1203 C   0  0  0  0  0  0  0  0  0  0  0  0
  -21.0418  -38.0407   -7.4840 C   0  0  0  0  0  0  0  0  0  0  0  0
  -21.2581  -38.4935  -11.5865 O   0  0  0  0  0  0  0  0  0  0  0  0
  -22.4368  -38.2417  -12.2982 C   0  0  0  0  0  0  0  0  0  0  0  0
  -16.2756  -38.9879   -7.0695 C   0  0  2  0  0  0  0  0  0  0  0  0
  -15.8245  -37.6927   -7.3555 O   0  0  0  0  0  0  0  0  0  0  0  0
  -15.3337  -39.9461   -7.7430 C   0  0  0  0  0  0  0  0  0  0  0  0
  -13.9496  -39.6039   -7.6527 N   0  0  0  0  0  0  0  0  0  0  0  0
  -13.1892  -40.0989   -8.8108 C   0  0  0  0  0  0  0  0  0  0  0  0
  -13.3182  -41.5982   -9.0816 C   0  0  0  0  0  0  0  0  0  0  0  0
  -12.0423  -41.0207   -8.5649 C   0  0  0  0  0  0  0  0  0  0  0  0
  -13.1007  -39.2035   -9.9856 C   0  0  0  0  0  0  0  0  0  0  0  0
  -13.4917  -37.8860   -9.9129 C   0  0  0  0  0  0  0  0  0  0  0  0
  -13.4123  -37.0351  -10.9990 C   0  0  0  0  0  0  0  0  0  0  0  0
  -12.9319  -37.4900  -12.2052 C   0  0  0  0  0  0  0  0  0  0  0  0
  -12.5330  -38.8004  -12.3068 C   0  0  0  0  0  0  0  0  0  0  0  0
  -12.6215  -39.6512  -11.1915 C   0  0  0  0  0  0  0  0  0  0  0  0
  -13.8491  -35.6087  -10.9054 C   0  0  0  0  0  0  0  0  0  0  0  0
  -14.1042  -35.0588  -12.2827 C   0  0  0  0  0  0  0  0  0  0  0  0
  -12.7329  -34.7716  -10.2721 C   0  0  0  0  0  0  0  0  0  0  0  0
  1  2  1  0
  2  3  1  0
  3  4  1  0
  4  5  1  0
  5  6  2  0
  6  7  1  0
  7  8  1  0
  8  9  1  0
  9 10  1  0
  7 11  2  0
 11 12  1  0
 12 13  2  0
 12 14  1  0
 14 15  2  0
 14 16  1  0
 16 17  1  0
 17 18  1  1
 18 19  1  0
 19 20  2  0
 20 21  1  0
 21 22  2  0
 22 23  1  0
 23 24  2  0
 21 25  1  0
 25 26  1  0
 17 27  1  0
 27 28  1  6
 27 29  1  0
 29 30  1  0
 30 31  1  0
 31 32  1  0
 32 33  1  0
 31 34  1  0
 34 35  2  0
 35 36  1  0
 36 37  2  0
 37 38  1  0
 38 39  2  0
 36 40  1  0
 40 41  1  0
 40 42  1  0
 13  5  1  0
 24 19  1  0
 33 31  1  0
 39 34  1  0
M  END
$$$$
