
     RDKit          3D

 42 45  0  0  0  0  0  0  0  0999 V2000
  -22.7273  -42.4355   -4.1364 C   0  0  0  0  0  0  0  0  0  0  0  0
  -22.9531  -42.6938   -5.6295 C   0  0  0  0  0  0  0  0  0  0  0  0
  -22.0593  -43.8265   -6.0334 C   0  0  0  0  0  0  0  0  0  0  0  0
  -22.0900  -44.1697   -7.4196 N   0  0  0  0  0  0  0  0  0  0  0  0
  -20.9473  -44.0964   -8.2275 C   0  0  0  0  0  0  0  0  0  0  0  0
  -20.5905  -45.1349   -9.0468 C   0  0  0  0  0  0  0  0  0  0  0  0
  -19.4807  -45.0538   -9.8543 C   0  0  0  0  0  0  0  0  0  0  0  0
  -19.0530  -46.1677  -10.7347 C   0  0  0  0  0  0  0  0  0  0  0  0
  -19.1121  -45.8543  -12.0858 O   0  0  0  0  0  0  0  0  0  0  0  0
  -19.6675  -46.9520  -12.7265 C   0  0  0  0  0  0  0  0  0  0  0  0
  -18.7066  -43.9082   -9.8446 C   0  0  0  0  0  0  0  0  0  0  0  0
  -19.0334  -42.8576   -9.0403 C   0  0  0  0  0  0  0  0  0  0  0  0
  -20.1395  -42.9441   -8.2379 C   0  0  0  0  0  0  0  0  0  0  0  0
  -18.2221  -41.6360   -9.0233 C   0  0  0  0  0  0  0  0  0  0  0  0
  -17.8776  -41.1266  -10.1485 O   0  0  0  0  0  0  0  0  0  0  0  0
  -17.7863  -40.9756   -7.8664 N   0  0  0  0  0  0  0  0  0  0  0  0
  -17.4119  -39.5844   -7.7267 C   0  0  1  0  0  0  0  0  0  0  0  0
  -18.3008  -38.9753   -6.7185 C   0  0  0  0  0  0  0  0  0  0  0  0
  -19.7252  -38.8988   -7.0172 C   0  0  0  0  0  0  0  0  0  0  0  0
  -20.6484  -39.5307   -6.2172 C   0  0  0  0  0  0  0  0  0  0  0  0
  -22.0272  -39.4782   -6.4912 C   0  0  0  0  0  0  0  0  0  0  0  0
  -22.4868  -38.7839   -7.5838 C   0  0  0  0  0  0  0  0  0  0  0  0
  -21.5684  -38.1468   -8.3921 C   0  0  0  0  0  0  0  0  0  0  0  0
  -20.1984  -38.2064   -8.1067 C   0  0  0  0  0  0  0  0  0  0  0  0
  -22.9174  -40.1286   -5.6582 O   0  0  0  0  0  0  0  0  0  0  0  0
  -22.7052  -40.1772   -4.2756 C   0  0  0  0  0  0  0  0  0  0  0  0
  -15.9307  -39.3568   -7.5120 C   0  0  2  0  0  0  0  0  0  0  0  0
  -15.7492  -37.9868   -7.2824 O   0  0  0  0  0  0  0  0  0  0  0  0
  -15.2459  -39.6853   -8.8089 C   0  0  0  0  0  0  0  0  0  0  0  0
  -14.0726  -38.9197   -9.0889 N   0  0  0  0  0  0  0  0  0  0  0  0
  -13.4826  -39.2815  -10.3871 C   0  0  0  0  0  0  0  0  0  0  0  0
  -14.4285  -39.9903  -11.3571 C   0  0  0  0  0  0  0  0  0  0  0  0
  -13.3051  -40.7277  -10.7072 C   0  0  0  0  0  0  0  0  0  0  0  0
  -12.5051  -38.3331  -10.9656 C   0  0  0  0  0  0  0  0  0  0  0  0
  -11.9275  -38.5605  -12.1939 C   0  0  0  0  0  0  0  0  0  0  0  0
  -11.0159  -37.6837  -12.7507 C   0  0  0  0  0  0  0  0  0  0  0  0
  -10.6533  -36.5385  -12.0800 C   0  0  0  0  0  0  0  0  0  0  0  0
  -11.2149  -36.2849  -10.8524 C   0  0  0  0  0  0  0  0  0  0  0  0
  -12.1401  -37.1885  -10.3017 C   0  0  0  0  0  0  0  0  0  0  0  0
  -10.3913  -37.9498  -14.0824 C   0  0  0  0  0  0  0  0  0  0  0  0
   -9.0029  -37.3710  -14.1228 C   0  0  0  0  0  0  0  0  0  0  0  0
  -11.2114  -37.2627  -15.1792 C   0  0  0  0  0  0  0  0  0  0  0  0
  1  2  1  0
  2  3  1  0
  3  4  1  0
  4  5  1  0
  5  6  2  0
  6  7  1  0
  7  8  1  0
  8  9  1  0
  9 10  1  0
  7 11  2  0
 11 12  1  0
 12 13  2  0
 12 14  1  0
 14 15  2  0
 14 16  1  0
 16 17  1  0
 17 18  1  1
 18 19  1  0
 19 20  2  0
 20 21  1  0
 21 22  2  0
 22 23  1  0
 23 24  2  0
 21 25  1  0
 25 26  1  0
 17 27  1  0
 27 28  1  6
 27 29  1  0
 29 30  1  0
 30 31  1  0
 31 32  1  0
 32 33  1  0
 31 34  1  0
 34 35  2  0
 35 36  1  0
 36 37  2  0
 37 38  1  0
 38 39  2  0
 36 40  1  0
 40 41  1  0
 40 42  1  0
 13  5  1  0
 24 19  1  0
 33 31  1  0
 39 34  1  0
M  END
$$$$
