
     RDKit          3D

 42 45  0  0  0  0  0  0  0  0999 V2000
  -24.5811  -40.2087   -5.1190 C   0  0  0  0  0  0  0  0  0  0  0  0
  -23.7279  -41.2596   -5.8363 C   0  0  0  0  0  0  0  0  0  0  0  0
  -23.9570  -41.1009   -7.3086 C   0  0  0  0  0  0  0  0  0  0  0  0
  -22.8335  -41.3935   -8.1407 N   0  0  0  0  0  0  0  0  0  0  0  0
  -22.0079  -40.3843   -8.6542 C   0  0  0  0  0  0  0  0  0  0  0  0
  -22.5237  -39.1771   -9.0461 C   0  0  0  0  0  0  0  0  0  0  0  0
  -21.7100  -38.1804   -9.5306 C   0  0  0  0  0  0  0  0  0  0  0  0
  -22.2381  -36.8716   -9.9856 C   0  0  0  0  0  0  0  0  0  0  0  0
  -22.3830  -35.9499   -8.9577 O   0  0  0  0  0  0  0  0  0  0  0  0
  -21.5328  -34.8927   -9.2466 C   0  0  0  0  0  0  0  0  0  0  0  0
  -20.3471  -38.3925   -9.6268 C   0  0  0  0  0  0  0  0  0  0  0  0
  -19.8022  -39.5823   -9.2463 C   0  0  0  0  0  0  0  0  0  0  0  0
  -20.6175  -40.5716   -8.7651 C   0  0  0  0  0  0  0  0  0  0  0  0
  -18.3579  -39.8184   -9.3408 C   0  0  0  0  0  0  0  0  0  0  0  0
  -17.9557  -40.8177  -10.0364 O   0  0  0  0  0  0  0  0  0  0  0  0
  -17.3725  -39.0350   -8.7245 N   0  0  0  0  0  0  0  0  0  0  0  0
  -15.9355  -39.1802   -8.8198 C   0  0  1  0  0  0  0  0  0  0  0  0
  -15.3655  -37.8530   -9.1218 C   0  0  0  0  0  0  0  0  0  0  0  0
  -15.8898  -37.1272  -10.2716 C   0  0  0  0  0  0  0  0  0  0  0  0
  -16.6404  -35.9870  -10.1035 C   0  0  0  0  0  0  0  0  0  0  0  0
  -17.1643  -35.2754  -11.1980 C   0  0  0  0  0  0  0  0  0  0  0  0
  -16.9340  -35.7141  -12.4792 C   0  0  0  0  0  0  0  0  0  0  0  0
  -16.1821  -36.8566  -12.6580 C   0  0  0  0  0  0  0  0  0  0  0  0
  -15.6656  -37.5547  -11.5591 C   0  0  0  0  0  0  0  0  0  0  0  0
  -17.9126  -34.1345  -10.9796 O   0  0  0  0  0  0  0  0  0  0  0  0
  -19.1156  -34.1883  -10.2662 C   0  0  0  0  0  0  0  0  0  0  0  0
  -15.3048  -39.9102   -7.6532 C   0  0  2  0  0  0  0  0  0  0  0  0
  -13.9262  -39.6665   -7.7061 O   0  0  0  0  0  0  0  0  0  0  0  0
  -15.5067  -41.3795   -7.8968 C   0  0  0  0  0  0  0  0  0  0  0  0
  -15.8763  -42.1422   -6.7467 N   0  0  0  0  0  0  0  0  0  0  0  0
  -16.4735  -43.4343   -7.1184 C   0  0  0  0  0  0  0  0  0  0  0  0
  -15.4807  -44.5840   -7.2929 C   0  0  0  0  0  0  0  0  0  0  0  0
  -16.1780  -43.9894   -8.4712 C   0  0  0  0  0  0  0  0  0  0  0  0
  -17.7888  -43.7596   -6.5236 C   0  0  0  0  0  0  0  0  0  0  0  0
  -18.2393  -43.1225   -5.3899 C   0  0  0  0  0  0  0  0  0  0  0  0
  -19.4664  -43.4112   -4.8234 C   0  0  0  0  0  0  0  0  0  0  0  0
  -20.2864  -44.3612   -5.3872 C   0  0  0  0  0  0  0  0  0  0  0  0
  -19.8633  -45.0123   -6.5202 C   0  0  0  0  0  0  0  0  0  0  0  0
  -18.6118  -44.7057   -7.0819 C   0  0  0  0  0  0  0  0  0  0  0  0
  -19.9371  -42.7160   -3.5867 C   0  0  0  0  0  0  0  0  0  0  0  0
  -20.7033  -43.6766   -2.7182 C   0  0  0  0  0  0  0  0  0  0  0  0
  -20.8889  -41.5780   -3.9698 C   0  0  0  0  0  0  0  0  0  0  0  0
  1  2  1  0
  2  3  1  0
  3  4  1  0
  4  5  1  0
  5  6  2  0
  6  7  1  0
  7  8  1  0
  8  9  1  0
  9 10  1  0
  7 11  2  0
 11 12  1  0
 12 13  2  0
 12 14  1  0
 14 15  2  0
 14 16  1  0
 16 17  1  0
 17 18  1  1
 18 19  1  0
 19 20  2  0
 20 21  1  0
 21 22  2  0
 22 23  1  0
 23 24  2  0
 21 25  1  0
 25 26  1  0
 17 27  1  0
 27 28  1  6
 27 29  1  0
 29 30  1  0
 30 31  1  0
 31 32  1  0
 32 33  1  0
 31 34  1  0
 34 35  2  0
 35 36  1  0
 36 37  2  0
 37 38  1  0
 38 39  2  0
 36 40  1  0
 40 41  1  0
 40 42  1  0
 13  5  1  0
 24 19  1  0
 33 31  1  0
 39 34  1  0
M  END
$$$$
