
     RDKit          3D

 42 45  0  0  0  0  0  0  0  0999 V2000
  -24.0893  -40.2500   -5.2508 C   0  0  0  0  0  0  0  0  0  0  0  0
  -23.9686  -40.9827   -6.5908 C   0  0  0  0  0  0  0  0  0  0  0  0
  -22.8208  -40.3745   -7.3377 C   0  0  0  0  0  0  0  0  0  0  0  0
  -23.1551  -39.7553   -8.5807 N   0  0  0  0  0  0  0  0  0  0  0  0
  -22.1766  -39.2247   -9.4320 C   0  0  0  0  0  0  0  0  0  0  0  0
  -22.5194  -38.5796  -10.5910 C   0  0  0  0  0  0  0  0  0  0  0  0
  -21.5595  -38.0414  -11.4152 C   0  0  0  0  0  0  0  0  0  0  0  0
  -21.8944  -37.3581  -12.6880 C   0  0  0  0  0  0  0  0  0  0  0  0
  -21.3780  -37.9967  -13.8071 O   0  0  0  0  0  0  0  0  0  0  0  0
  -22.3349  -38.9110  -14.2223 C   0  0  0  0  0  0  0  0  0  0  0  0
  -20.2237  -38.1491  -11.0753 C   0  0  0  0  0  0  0  0  0  0  0  0
  -19.8490  -38.7855   -9.9299 C   0  0  0  0  0  0  0  0  0  0  0  0
  -20.8092  -39.3200   -9.1132 C   0  0  0  0  0  0  0  0  0  0  0  0
  -18.4356  -38.9037   -9.5569 C   0  0  0  0  0  0  0  0  0  0  0  0
  -17.7910  -39.9361   -9.9605 O   0  0  0  0  0  0  0  0  0  0  0  0
  -17.7263  -37.9726   -8.7859 N   0  0  0  0  0  0  0  0  0  0  0  0
  -16.3491  -38.0495   -8.3472 C   0  0  1  0  0  0  0  0  0  0  0  0
  -15.6354  -36.8767   -8.8884 C   0  0  0  0  0  0  0  0  0  0  0  0
  -15.6091  -36.6974  -10.3345 C   0  0  0  0  0  0  0  0  0  0  0  0
  -14.4726  -36.2539  -10.9695 C   0  0  0  0  0  0  0  0  0  0  0  0
  -14.4269  -36.0648  -12.3627 C   0  0  0  0  0  0  0  0  0  0  0  0
  -15.5368  -36.3223  -13.1300 C   0  0  0  0  0  0  0  0  0  0  0  0
  -16.6814  -36.7677  -12.5021 C   0  0  0  0  0  0  0  0  0  0  0  0
  -16.7126  -36.9527  -11.1141 C   0  0  0  0  0  0  0  0  0  0  0  0
  -13.2620  -35.6179  -12.9564 O   0  0  0  0  0  0  0  0  0  0  0  0
  -13.2040  -35.3727  -14.3333 C   0  0  0  0  0  0  0  0  0  0  0  0
  -16.1811  -38.2860   -6.8615 C   0  0  2  0  0  0  0  0  0  0  0  0
  -14.8057  -38.3013   -6.5954 O   0  0  0  0  0  0  0  0  0  0  0  0
  -16.7049  -39.6657   -6.5769 C   0  0  0  0  0  0  0  0  0  0  0  0
  -16.6082  -40.0847   -5.2145 N   0  0  0  0  0  0  0  0  0  0  0  0
  -17.8610  -40.6934   -4.7412 C   0  0  0  0  0  0  0  0  0  0  0  0
  -18.3462  -40.2060   -3.3755 C   0  0  0  0  0  0  0  0  0  0  0  0
  -17.8087  -41.5879   -3.5484 C   0  0  0  0  0  0  0  0  0  0  0  0
  -18.8919  -40.9832   -5.7624 C   0  0  0  0  0  0  0  0  0  0  0  0
  -19.4066  -39.9888   -6.5625 C   0  0  0  0  0  0  0  0  0  0  0  0
  -20.3669  -40.2423   -7.5236 C   0  0  0  0  0  0  0  0  0  0  0  0
  -20.8441  -41.5191   -7.7100 C   0  0  0  0  0  0  0  0  0  0  0  0
  -20.3475  -42.5321   -6.9264 C   0  0  0  0  0  0  0  0  0  0  0  0
  -19.3713  -42.2551   -5.9538 C   0  0  0  0  0  0  0  0  0  0  0  0
  -20.9217  -39.1491   -8.3788 C   0  0  0  0  0  0  0  0  0  0  0  0
  -22.4069  -39.3283   -8.5411 C   0  0  0  0  0  0  0  0  0  0  0  0
  -20.2917  -39.2203   -9.7736 C   0  0  0  0  0  0  0  0  0  0  0  0
  1  2  1  0
  2  3  1  0
  3  4  1  0
  4  5  1  0
  5  6  2  0
  6  7  1  0
  7  8  1  0
  8  9  1  0
  9 10  1  0
  7 11  2  0
 11 12  1  0
 12 13  2  0
 12 14  1  0
 14 15  2  0
 14 16  1  0
 16 17  1  0
 17 18  1  1
 18 19  1  0
 19 20  2  0
 20 21  1  0
 21 22  2  0
 22 23  1  0
 23 24  2  0
 21 25  1  0
 25 26  1  0
 17 27  1  0
 27 28  1  6
 27 29  1  0
 29 30  1  0
 30 31  1  0
 31 32  1  0
 32 33  1  0
 31 34  1  0
 34 35  2  0
 35 36  1  0
 36 37  2  0
 37 38  1  0
 38 39  2  0
 36 40  1  0
 40 41  1  0
 40 42  1  0
 13  5  1  0
 24 19  1  0
 33 31  1  0
 39 34  1  0
M  END
$$$$
