
     RDKit          3D

 42 45  0  0  0  0  0  0  0  0999 V2000
  -16.6904  -31.5368  -10.6571 C   0  0  0  0  0  0  0  0  0  0  0  0
  -17.4472  -32.0655  -11.8797 C   0  0  0  0  0  0  0  0  0  0  0  0
  -17.5192  -33.5572  -11.7575 C   0  0  0  0  0  0  0  0  0  0  0  0
  -18.2135  -34.2275  -12.8104 N   0  0  0  0  0  0  0  0  0  0  0  0
  -18.4165  -35.6141  -12.8003 C   0  0  0  0  0  0  0  0  0  0  0  0
  -19.2327  -36.2179  -13.7200 C   0  0  0  0  0  0  0  0  0  0  0  0
  -19.4150  -37.5807  -13.7219 C   0  0  0  0  0  0  0  0  0  0  0  0
  -20.3095  -38.2635  -14.6875 C   0  0  0  0  0  0  0  0  0  0  0  0
  -20.9363  -37.3917  -15.5675 O   0  0  0  0  0  0  0  0  0  0  0  0
  -22.2564  -37.2882  -15.1547 C   0  0  0  0  0  0  0  0  0  0  0  0
  -18.7668  -38.3614  -12.7827 C   0  0  0  0  0  0  0  0  0  0  0  0
  -17.9487  -37.7919  -11.8534 C   0  0  0  0  0  0  0  0  0  0  0  0
  -17.7714  -36.4342  -11.8559 C   0  0  0  0  0  0  0  0  0  0  0  0
  -17.2534  -38.6095  -10.8540 C   0  0  0  0  0  0  0  0  0  0  0  0
  -17.4080  -39.8815  -10.9039 O   0  0  0  0  0  0  0  0  0  0  0  0
  -16.4282  -38.1089   -9.8377 N   0  0  0  0  0  0  0  0  0  0  0  0
  -15.4259  -38.8232   -9.0760 C   0  0  1  0  0  0  0  0  0  0  0  0
  -14.2203  -37.9751   -9.0067 C   0  0  0  0  0  0  0  0  0  0  0  0
  -13.6676  -37.4659  -10.2554 C   0  0  0  0  0  0  0  0  0  0  0  0
  -13.2808  -36.1512  -10.3712 C   0  0  0  0  0  0  0  0  0  0  0  0
  -12.7535  -35.6356  -11.5690 C   0  0  0  0  0  0  0  0  0  0  0  0
  -12.6136  -36.4491  -12.6671 C   0  0  0  0  0  0  0  0  0  0  0  0
  -12.9987  -37.7694  -12.5606 C   0  0  0  0  0  0  0  0  0  0  0  0
  -13.5212  -38.2698  -11.3613 C   0  0  0  0  0  0  0  0  0  0  0  0
  -12.3780  -34.3076  -11.6377 O   0  0  0  0  0  0  0  0  0  0  0  0
  -11.5526  -33.8454  -12.6693 C   0  0  0  0  0  0  0  0  0  0  0  0
  -15.9192  -39.3640   -7.7509 C   0  0  2  0  0  0  0  0  0  0  0  0
  -14.9192  -40.2056   -7.2466 O   0  0  0  0  0  0  0  0  0  0  0  0
  -17.1160  -40.2232   -8.0482 C   0  0  0  0  0  0  0  0  0  0  0  0
  -17.7243  -40.8349   -6.9093 N   0  0  0  0  0  0  0  0  0  0  0  0
  -19.0856  -41.3071   -7.2063 C   0  0  0  0  0  0  0  0  0  0  0  0
  -19.2627  -42.8259   -7.2037 C   0  0  0  0  0  0  0  0  0  0  0  0
  -19.3165  -42.0512   -8.4786 C   0  0  0  0  0  0  0  0  0  0  0  0
  -20.2053  -40.4937   -6.6828 C   0  0  0  0  0  0  0  0  0  0  0  0
  -20.7916  -40.7783   -5.4706 C   0  0  0  0  0  0  0  0  0  0  0  0
  -21.8355  -40.0269   -4.9649 C   0  0  0  0  0  0  0  0  0  0  0  0
  -22.3268  -38.9542   -5.6725 C   0  0  0  0  0  0  0  0  0  0  0  0
  -21.7600  -38.6458   -6.8851 C   0  0  0  0  0  0  0  0  0  0  0  0
  -20.6993  -39.4217   -7.3835 C   0  0  0  0  0  0  0  0  0  0  0  0
  -22.4669  -40.3548   -3.6504 C   0  0  0  0  0  0  0  0  0  0  0  0
  -23.9563  -40.4899   -3.8160 C   0  0  0  0  0  0  0  0  0  0  0  0
  -22.2128  -39.2125   -2.6612 C   0  0  0  0  0  0  0  0  0  0  0  0
  1  2  1  0
  2  3  1  0
  3  4  1  0
  4  5  1  0
  5  6  2  0
  6  7  1  0
  7  8  1  0
  8  9  1  0
  9 10  1  0
  7 11  2  0
 11 12  1  0
 12 13  2  0
 12 14  1  0
 14 15  2  0
 14 16  1  0
 16 17  1  0
 17 18  1  1
 18 19  1  0
 19 20  2  0
 20 21  1  0
 21 22  2  0
 22 23  1  0
 23 24  2  0
 21 25  1  0
 25 26  1  0
 17 27  1  0
 27 28  1  6
 27 29  1  0
 29 30  1  0
 30 31  1  0
 31 32  1  0
 32 33  1  0
 31 34  1  0
 34 35  2  0
 35 36  1  0
 36 37  2  0
 37 38  1  0
 38 39  2  0
 36 40  1  0
 40 41  1  0
 40 42  1  0
 13  5  1  0
 24 19  1  0
 33 31  1  0
 39 34  1  0
M  END
$$$$
