
     RDKit          3D

 42 45  0  0  0  0  0  0  0  0999 V2000
  -23.2543  -44.6421   -1.8377 C   0  0  0  0  0  0  0  0  0  0  0  0
  -22.3203  -43.5767   -2.4204 C   0  0  0  0  0  0  0  0  0  0  0  0
  -22.6380  -43.4447   -3.8788 C   0  0  0  0  0  0  0  0  0  0  0  0
  -21.8683  -42.4745   -4.5903 N   0  0  0  0  0  0  0  0  0  0  0  0
  -21.0625  -42.8228   -5.6827 C   0  0  0  0  0  0  0  0  0  0  0  0
  -21.1159  -44.0768   -6.2318 C   0  0  0  0  0  0  0  0  0  0  0  0
  -20.3399  -44.4111   -7.3165 C   0  0  0  0  0  0  0  0  0  0  0  0
  -20.3555  -45.7655   -7.9200 C   0  0  0  0  0  0  0  0  0  0  0  0
  -21.0548  -45.8255   -9.1177 O   0  0  0  0  0  0  0  0  0  0  0  0
  -20.1259  -46.1056  -10.1089 C   0  0  0  0  0  0  0  0  0  0  0  0
  -19.4889  -43.4711   -7.8678 C   0  0  0  0  0  0  0  0  0  0  0  0
  -19.4112  -42.2150   -7.3448 C   0  0  0  0  0  0  0  0  0  0  0  0
  -20.1860  -41.8879   -6.2642 C   0  0  0  0  0  0  0  0  0  0  0  0
  -18.5147  -41.2084   -7.9223 C   0  0  0  0  0  0  0  0  0  0  0  0
  -18.1149  -41.3798   -9.1287 O   0  0  0  0  0  0  0  0  0  0  0  0
  -18.0528  -40.0651   -7.2560 N   0  0  0  0  0  0  0  0  0  0  0  0
  -17.0655  -39.1102   -7.7125 C   0  0  1  0  0  0  0  0  0  0  0  0
  -17.6167  -37.7566   -7.5089 C   0  0  0  0  0  0  0  0  0  0  0  0
  -18.9647  -37.4855   -7.9920 C   0  0  0  0  0  0  0  0  0  0  0  0
  -19.1897  -37.1611   -9.3095 C   0  0  0  0  0  0  0  0  0  0  0  0
  -20.4807  -36.8866   -9.7961 C   0  0  0  0  0  0  0  0  0  0  0  0
  -21.5613  -36.9362   -8.9495 C   0  0  0  0  0  0  0  0  0  0  0  0
  -21.3457  -37.2609   -7.6263 C   0  0  0  0  0  0  0  0  0  0  0  0
  -20.0549  -37.5330   -7.1555 C   0  0  0  0  0  0  0  0  0  0  0  0
  -20.6577  -36.5655  -11.1283 O   0  0  0  0  0  0  0  0  0  0  0  0
  -19.5727  -36.5367  -12.0121 C   0  0  0  0  0  0  0  0  0  0  0  0
  -15.6757  -39.3381   -7.1573 C   0  0  2  0  0  0  0  0  0  0  0  0
  -14.8666  -38.2915   -7.6185 O   0  0  0  0  0  0  0  0  0  0  0  0
  -15.1600  -40.6060   -7.7779 C   0  0  0  0  0  0  0  0  0  0  0  0
  -14.3734  -40.4304   -8.9576 N   0  0  0  0  0  0  0  0  0  0  0  0
  -13.1877  -41.3013   -8.9567 C   0  0  0  0  0  0  0  0  0  0  0  0
  -13.4668  -42.7805   -8.6884 C   0  0  0  0  0  0  0  0  0  0  0  0
  -12.7743  -41.9355   -7.6712 C   0  0  0  0  0  0  0  0  0  0  0  0
  -12.1198  -40.9790   -9.9289 C   0  0  0  0  0  0  0  0  0  0  0  0
  -10.8522  -41.4989   -9.7988 C   0  0  0  0  0  0  0  0  0  0  0  0
   -9.8441  -41.2115  -10.6995 C   0  0  0  0  0  0  0  0  0  0  0  0
  -10.0841  -40.3820  -11.7705 C   0  0  0  0  0  0  0  0  0  0  0  0
  -11.3407  -39.8495  -11.9264 C   0  0  0  0  0  0  0  0  0  0  0  0
  -12.3532  -40.1528  -10.9999 C   0  0  0  0  0  0  0  0  0  0  0  0
   -8.4702  -41.7778  -10.5389 C   0  0  0  0  0  0  0  0  0  0  0  0
   -8.5455  -43.2736  -10.3931 C   0  0  0  0  0  0  0  0  0  0  0  0
   -7.8323  -41.2198   -9.2624 C   0  0  0  0  0  0  0  0  0  0  0  0
  1  2  1  0
  2  3  1  0
  3  4  1  0
  4  5  1  0
  5  6  2  0
  6  7  1  0
  7  8  1  0
  8  9  1  0
  9 10  1  0
  7 11  2  0
 11 12  1  0
 12 13  2  0
 12 14  1  0
 14 15  2  0
 14 16  1  0
 16 17  1  0
 17 18  1  1
 18 19  1  0
 19 20  2  0
 20 21  1  0
 21 22  2  0
 22 23  1  0
 23 24  2  0
 21 25  1  0
 25 26  1  0
 17 27  1  0
 27 28  1  6
 27 29  1  0
 29 30  1  0
 30 31  1  0
 31 32  1  0
 32 33  1  0
 31 34  1  0
 34 35  2  0
 35 36  1  0
 36 37  2  0
 37 38  1  0
 38 39  2  0
 36 40  1  0
 40 41  1  0
 40 42  1  0
 13  5  1  0
 24 19  1  0
 33 31  1  0
 39 34  1  0
M  END
$$$$
