
     RDKit          3D

 42 45  0  0  0  0  0  0  0  0999 V2000
  -23.4990  -44.4210   -1.8228 C   0  0  0  0  0  0  0  0  0  0  0  0
  -23.4619  -43.5365   -3.0730 C   0  0  0  0  0  0  0  0  0  0  0  0
  -22.3911  -44.0713   -3.9745 C   0  0  0  0  0  0  0  0  0  0  0  0
  -22.2335  -43.3842   -5.2168 N   0  0  0  0  0  0  0  0  0  0  0  0
  -21.1672  -43.6557   -6.0846 C   0  0  0  0  0  0  0  0  0  0  0  0
  -20.8500  -44.9409   -6.4376 C   0  0  0  0  0  0  0  0  0  0  0  0
  -19.8166  -45.2049   -7.3053 C   0  0  0  0  0  0  0  0  0  0  0  0
  -19.4317  -46.5844   -7.6894 C   0  0  0  0  0  0  0  0  0  0  0  0
  -18.7201  -46.6452   -8.8798 O   0  0  0  0  0  0  0  0  0  0  0  0
  -18.0678  -47.8692   -8.8930 C   0  0  0  0  0  0  0  0  0  0  0  0
  -19.0806  -44.1609   -7.8345 C   0  0  0  0  0  0  0  0  0  0  0  0
  -19.3696  -42.8710   -7.5029 C   0  0  0  0  0  0  0  0  0  0  0  0
  -20.3995  -42.6141   -6.6379 C   0  0  0  0  0  0  0  0  0  0  0  0
  -18.5983  -41.7549   -8.0598 C   0  0  0  0  0  0  0  0  0  0  0  0
  -18.6429  -41.5657   -9.3273 O   0  0  0  0  0  0  0  0  0  0  0  0
  -17.8067  -40.8719   -7.3127 N   0  0  0  0  0  0  0  0  0  0  0  0
  -17.6224  -39.4516   -7.5222 C   0  0  1  0  0  0  0  0  0  0  0  0
  -18.6394  -38.7404   -6.7239 C   0  0  0  0  0  0  0  0  0  0  0  0
  -20.0435  -38.9774   -7.0343 C   0  0  0  0  0  0  0  0  0  0  0  0
  -20.4903  -38.9635   -8.3349 C   0  0  0  0  0  0  0  0  0  0  0  0
  -21.8422  -39.1805   -8.6575 C   0  0  0  0  0  0  0  0  0  0  0  0
  -22.7596  -39.4130   -7.6618 C   0  0  0  0  0  0  0  0  0  0  0  0
  -22.3210  -39.4290   -6.3541 C   0  0  0  0  0  0  0  0  0  0  0  0
  -20.9716  -39.2124   -6.0474 C   0  0  0  0  0  0  0  0  0  0  0  0
  -22.2443  -39.1576   -9.9793 O   0  0  0  0  0  0  0  0  0  0  0  0
  -22.9560  -40.2278  -10.5337 C   0  0  0  0  0  0  0  0  0  0  0  0
  -16.1977  -38.9746   -7.3366 C   0  0  2  0  0  0  0  0  0  0  0  0
  -16.2023  -37.5817   -7.4869 O   0  0  0  0  0  0  0  0  0  0  0  0
  -15.3955  -39.5423   -8.4738 C   0  0  0  0  0  0  0  0  0  0  0  0
  -14.8626  -38.5784   -9.3838 N   0  0  0  0  0  0  0  0  0  0  0  0
  -13.4593  -38.8641   -9.7205 C   0  0  0  0  0  0  0  0  0  0  0  0
  -13.0694  -40.3421   -9.6850 C   0  0  0  0  0  0  0  0  0  0  0  0
  -12.5662  -39.3928   -8.6488 C   0  0  0  0  0  0  0  0  0  0  0  0
  -12.8383  -38.0247  -10.7690 C   0  0  0  0  0  0  0  0  0  0  0  0
  -13.3321  -36.7765  -11.0729 C   0  0  0  0  0  0  0  0  0  0  0  0
  -12.7623  -35.9780  -12.0462 C   0  0  0  0  0  0  0  0  0  0  0  0
  -11.6658  -36.4168  -12.7518 C   0  0  0  0  0  0  0  0  0  0  0  0
  -11.1504  -37.6583  -12.4688 C   0  0  0  0  0  0  0  0  0  0  0  0
  -11.7437  -38.4566  -11.4757 C   0  0  0  0  0  0  0  0  0  0  0  0
  -13.3163  -34.6279  -12.3700 C   0  0  0  0  0  0  0  0  0  0  0  0
  -12.3229  -33.8484  -13.1883 C   0  0  0  0  0  0  0  0  0  0  0  0
  -13.5596  -33.8497  -11.0727 C   0  0  0  0  0  0  0  0  0  0  0  0
  1  2  1  0
  2  3  1  0
  3  4  1  0
  4  5  1  0
  5  6  2  0
  6  7  1  0
  7  8  1  0
  8  9  1  0
  9 10  1  0
  7 11  2  0
 11 12  1  0
 12 13  2  0
 12 14  1  0
 14 15  2  0
 14 16  1  0
 16 17  1  0
 17 18  1  1
 18 19  1  0
 19 20  2  0
 20 21  1  0
 21 22  2  0
 22 23  1  0
 23 24  2  0
 21 25  1  0
 25 26  1  0
 17 27  1  0
 27 28  1  6
 27 29  1  0
 29 30  1  0
 30 31  1  0
 31 32  1  0
 32 33  1  0
 31 34  1  0
 34 35  2  0
 35 36  1  0
 36 37  2  0
 37 38  1  0
 38 39  2  0
 36 40  1  0
 40 41  1  0
 40 42  1  0
 13  5  1  0
 24 19  1  0
 33 31  1  0
 39 34  1  0
M  END
$$$$
