
     RDKit          3D

 42 45  0  0  0  0  0  0  0  0999 V2000
  -25.8793  -42.3323   -5.9377 C   0  0  0  0  0  0  0  0  0  0  0  0
  -24.9323  -43.0022   -6.9383 C   0  0  0  0  0  0  0  0  0  0  0  0
  -23.6804  -43.3691   -6.2012 C   0  0  0  0  0  0  0  0  0  0  0  0
  -22.5731  -42.4875   -6.3932 N   0  0  0  0  0  0  0  0  0  0  0  0
  -21.3785  -42.9156   -6.9877 C   0  0  0  0  0  0  0  0  0  0  0  0
  -21.1229  -44.2467   -7.1870 C   0  0  0  0  0  0  0  0  0  0  0  0
  -19.9596  -44.6645   -7.7890 C   0  0  0  0  0  0  0  0  0  0  0  0
  -19.6410  -46.0976   -7.9982 C   0  0  0  0  0  0  0  0  0  0  0  0
  -19.3909  -46.4170   -9.3257 O   0  0  0  0  0  0  0  0  0  0  0  0
  -20.5517  -46.9899   -9.8241 C   0  0  0  0  0  0  0  0  0  0  0  0
  -19.0271  -43.7313   -8.2029 C   0  0  0  0  0  0  0  0  0  0  0  0
  -19.2502  -42.3996   -8.0186 C   0  0  0  0  0  0  0  0  0  0  0  0
  -20.4103  -41.9893   -7.4180 C   0  0  0  0  0  0  0  0  0  0  0  0
  -18.2702  -41.4000   -8.4559 C   0  0  0  0  0  0  0  0  0  0  0  0
  -17.8929  -41.4231   -9.6813 O   0  0  0  0  0  0  0  0  0  0  0  0
  -17.7053  -40.4142   -7.6352 N   0  0  0  0  0  0  0  0  0  0  0  0
  -17.0573  -39.1855   -8.0419 C   0  0  1  0  0  0  0  0  0  0  0  0
  -17.8559  -38.0588   -7.5218 C   0  0  0  0  0  0  0  0  0  0  0  0
  -19.2708  -38.0045   -7.8671 C   0  0  0  0  0  0  0  0  0  0  0  0
  -19.6724  -37.7656   -9.1606 C   0  0  0  0  0  0  0  0  0  0  0  0
  -21.0321  -37.6997   -9.5153 C   0  0  0  0  0  0  0  0  0  0  0  0
  -22.0030  -37.8740   -8.5592 C   0  0  0  0  0  0  0  0  0  0  0  0
  -21.6099  -38.1142   -7.2590 C   0  0  0  0  0  0  0  0  0  0  0  0
  -20.2524  -38.1784   -6.9201 C   0  0  0  0  0  0  0  0  0  0  0  0
  -21.3875  -37.4577  -10.8284 O   0  0  0  0  0  0  0  0  0  0  0  0
  -20.4764  -36.8927  -11.7283 C   0  0  0  0  0  0  0  0  0  0  0  0
  -15.5762  -39.1312   -7.7338 C   0  0  2  0  0  0  0  0  0  0  0  0
  -15.1284  -37.8464   -8.0678 O   0  0  0  0  0  0  0  0  0  0  0  0
  -14.9002  -40.0950   -8.6682 C   0  0  0  0  0  0  0  0  0  0  0  0
  -13.5282  -39.8111   -8.9479 N   0  0  0  0  0  0  0  0  0  0  0  0
  -12.9416  -40.8033   -9.8620 C   0  0  0  0  0  0  0  0  0  0  0  0
  -13.8272  -41.2046  -11.0421 C   0  0  0  0  0  0  0  0  0  0  0  0
  -13.5586  -42.1600   -9.9270 C   0  0  0  0  0  0  0  0  0  0  0  0
  -11.4859  -40.7070  -10.1095 C   0  0  0  0  0  0  0  0  0  0  0  0
  -10.5807  -41.3956   -9.3345 C   0  0  0  0  0  0  0  0  0  0  0  0
   -9.2183  -41.3201   -9.5541 C   0  0  0  0  0  0  0  0  0  0  0  0
   -8.7200  -40.5399  -10.5718 C   0  0  0  0  0  0  0  0  0  0  0  0
   -9.6004  -39.8424  -11.3625 C   0  0  0  0  0  0  0  0  0  0  0  0
  -10.9827  -39.9311  -11.1239 C   0  0  0  0  0  0  0  0  0  0  0  0
   -8.2479  -42.0678   -8.6976 C   0  0  0  0  0  0  0  0  0  0  0  0
   -7.3236  -41.1024   -8.0065 C   0  0  0  0  0  0  0  0  0  0  0  0
   -7.3887  -42.9830   -9.5762 C   0  0  0  0  0  0  0  0  0  0  0  0
  1  2  1  0
  2  3  1  0
  3  4  1  0
  4  5  1  0
  5  6  2  0
  6  7  1  0
  7  8  1  0
  8  9  1  0
  9 10  1  0
  7 11  2  0
 11 12  1  0
 12 13  2  0
 12 14  1  0
 14 15  2  0
 14 16  1  0
 16 17  1  0
 17 18  1  1
 18 19  1  0
 19 20  2  0
 20 21  1  0
 21 22  2  0
 22 23  1  0
 23 24  2  0
 21 25  1  0
 25 26  1  0
 17 27  1  0
 27 28  1  6
 27 29  1  0
 29 30  1  0
 30 31  1  0
 31 32  1  0
 32 33  1  0
 31 34  1  0
 34 35  2  0
 35 36  1  0
 36 37  2  0
 37 38  1  0
 38 39  2  0
 36 40  1  0
 40 41  1  0
 40 42  1  0
 13  5  1  0
 24 19  1  0
 33 31  1  0
 39 34  1  0
M  END
$$$$
