
     RDKit          3D

 42 45  0  0  0  0  0  0  0  0999 V2000
  -22.1117  -47.4097  -13.1852 C   0  0  0  0  0  0  0  0  0  0  0  0
  -21.1124  -46.3966  -12.6177 C   0  0  0  0  0  0  0  0  0  0  0  0
  -20.5456  -46.9766  -11.3578 C   0  0  0  0  0  0  0  0  0  0  0  0
  -19.6143  -46.1458  -10.6631 N   0  0  0  0  0  0  0  0  0  0  0  0
  -20.0122  -44.9736  -10.0063 C   0  0  0  0  0  0  0  0  0  0  0  0
  -21.2833  -44.8329   -9.5149 C   0  0  0  0  0  0  0  0  0  0  0  0
  -21.6666  -43.6905   -8.8526 C   0  0  0  0  0  0  0  0  0  0  0  0
  -23.0404  -43.4959   -8.3295 C   0  0  0  0  0  0  0  0  0  0  0  0
  -23.6614  -42.3578   -8.8255 O   0  0  0  0  0  0  0  0  0  0  0  0
  -24.7840  -42.7855   -9.5190 C   0  0  0  0  0  0  0  0  0  0  0  0
  -20.7594  -42.6622   -8.6757 C   0  0  0  0  0  0  0  0  0  0  0  0
  -19.4875  -42.7701   -9.1533 C   0  0  0  0  0  0  0  0  0  0  0  0
  -19.1116  -43.9098   -9.8125 C   0  0  0  0  0  0  0  0  0  0  0  0
  -18.5154  -41.6876   -8.9695 C   0  0  0  0  0  0  0  0  0  0  0  0
  -17.9071  -41.2424  -10.0068 O   0  0  0  0  0  0  0  0  0  0  0  0
  -18.1920  -41.0965   -7.7404 N   0  0  0  0  0  0  0  0  0  0  0  0
  -17.6431  -39.7777   -7.5072 C   0  0  1  0  0  0  0  0  0  0  0  0
  -18.6317  -39.0070   -6.7286 C   0  0  0  0  0  0  0  0  0  0  0  0
  -20.0020  -38.9540   -7.2217 C   0  0  0  0  0  0  0  0  0  0  0  0
  -21.0413  -39.4524   -6.4712 C   0  0  0  0  0  0  0  0  0  0  0  0
  -22.3705  -39.4204   -6.9306 C   0  0  0  0  0  0  0  0  0  0  0  0
  -22.6617  -38.8827   -8.1608 C   0  0  0  0  0  0  0  0  0  0  0  0
  -21.6261  -38.3802   -8.9207 C   0  0  0  0  0  0  0  0  0  0  0  0
  -20.3073  -38.4176   -8.4503 C   0  0  0  0  0  0  0  0  0  0  0  0
  -23.3818  -39.9329   -6.1408 O   0  0  0  0  0  0  0  0  0  0  0  0
  -23.1179  -40.9201   -5.1843 C   0  0  0  0  0  0  0  0  0  0  0  0
  -16.2345  -39.7787   -6.9527 C   0  0  2  0  0  0  0  0  0  0  0  0
  -16.0216  -38.5296   -6.3551 O   0  0  0  0  0  0  0  0  0  0  0  0
  -15.3025  -39.8745   -8.1280 C   0  0  0  0  0  0  0  0  0  0  0  0
  -13.9491  -40.2003   -7.8068 N   0  0  0  0  0  0  0  0  0  0  0  0
  -13.0160  -39.7390   -8.8465 C   0  0  0  0  0  0  0  0  0  0  0  0
  -12.1521  -40.8318   -9.4770 C   0  0  0  0  0  0  0  0  0  0  0  0
  -11.5521  -39.8108   -8.5683 C   0  0  0  0  0  0  0  0  0  0  0  0
  -13.4861  -38.6514   -9.7329 C   0  0  0  0  0  0  0  0  0  0  0  0
  -12.6554  -38.0832  -10.6716 C   0  0  0  0  0  0  0  0  0  0  0  0
  -13.0790  -37.0694  -11.5099 C   0  0  0  0  0  0  0  0  0  0  0  0
  -14.3662  -36.5910  -11.4275 C   0  0  0  0  0  0  0  0  0  0  0  0
  -15.2182  -37.1403  -10.5005 C   0  0  0  0  0  0  0  0  0  0  0  0
  -14.7694  -38.1705   -9.6561 C   0  0  0  0  0  0  0  0  0  0  0  0
  -12.1613  -36.4571  -12.5185 C   0  0  0  0  0  0  0  0  0  0  0  0
  -12.9422  -35.5735  -13.4531 C   0  0  0  0  0  0  0  0  0  0  0  0
  -11.5137  -37.5624  -13.3592 C   0  0  0  0  0  0  0  0  0  0  0  0
  1  2  1  0
  2  3  1  0
  3  4  1  0
  4  5  1  0
  5  6  2  0
  6  7  1  0
  7  8  1  0
  8  9  1  0
  9 10  1  0
  7 11  2  0
 11 12  1  0
 12 13  2  0
 12 14  1  0
 14 15  2  0
 14 16  1  0
 16 17  1  0
 17 18  1  1
 18 19  1  0
 19 20  2  0
 20 21  1  0
 21 22  2  0
 22 23  1  0
 23 24  2  0
 21 25  1  0
 25 26  1  0
 17 27  1  0
 27 28  1  6
 27 29  1  0
 29 30  1  0
 30 31  1  0
 31 32  1  0
 32 33  1  0
 31 34  1  0
 34 35  2  0
 35 36  1  0
 36 37  2  0
 37 38  1  0
 38 39  2  0
 36 40  1  0
 40 41  1  0
 40 42  1  0
 13  5  1  0
 24 19  1  0
 33 31  1  0
 39 34  1  0
M  END
$$$$
