
     RDKit          3D

 42 45  0  0  0  0  0  0  0  0999 V2000
  -18.9979  -48.7833  -13.8639 C   0  0  0  0  0  0  0  0  0  0  0  0
  -19.7040  -47.5545  -13.2825 C   0  0  0  0  0  0  0  0  0  0  0  0
  -19.1221  -47.2975  -11.9258 C   0  0  0  0  0  0  0  0  0  0  0  0
  -18.6314  -45.9739  -11.7079 N   0  0  0  0  0  0  0  0  0  0  0  0
  -18.9875  -45.2275  -10.5766 C   0  0  0  0  0  0  0  0  0  0  0  0
  -19.7245  -45.7828   -9.5640 C   0  0  0  0  0  0  0  0  0  0  0  0
  -20.0559  -45.0557   -8.4451 C   0  0  0  0  0  0  0  0  0  0  0  0
  -20.8721  -45.6182   -7.3424 C   0  0  0  0  0  0  0  0  0  0  0  0
  -20.1170  -46.0180   -6.2482 O   0  0  0  0  0  0  0  0  0  0  0  0
  -20.3316  -45.0788   -5.2504 C   0  0  0  0  0  0  0  0  0  0  0  0
  -19.6417  -43.7413   -8.3329 C   0  0  0  0  0  0  0  0  0  0  0  0
  -18.9081  -43.1587   -9.3227 C   0  0  0  0  0  0  0  0  0  0  0  0
  -18.5816  -43.8875  -10.4349 C   0  0  0  0  0  0  0  0  0  0  0  0
  -18.4605  -41.7664   -9.2140 C   0  0  0  0  0  0  0  0  0  0  0  0
  -18.2210  -41.1249  -10.2982 O   0  0  0  0  0  0  0  0  0  0  0  0
  -18.2688  -41.0744   -8.0103 N   0  0  0  0  0  0  0  0  0  0  0  0
  -18.2112  -39.6421   -7.8097 C   0  0  1  0  0  0  0  0  0  0  0  0
  -19.0706  -39.3115   -6.6566 C   0  0  0  0  0  0  0  0  0  0  0  0
  -20.5070  -39.5181   -6.7905 C   0  0  0  0  0  0  0  0  0  0  0  0
  -21.2041  -40.2505   -5.8582 C   0  0  0  0  0  0  0  0  0  0  0  0
  -22.5888  -40.4706   -5.9718 C   0  0  0  0  0  0  0  0  0  0  0  0
  -23.2843  -39.9505   -7.0362 C   0  0  0  0  0  0  0  0  0  0  0  0
  -22.5938  -39.2144   -7.9764 C   0  0  0  0  0  0  0  0  0  0  0  0
  -21.2151  -39.0022   -7.8502 C   0  0  0  0  0  0  0  0  0  0  0  0
  -23.2467  -41.2128   -5.0097 O   0  0  0  0  0  0  0  0  0  0  0  0
  -23.0891  -40.9279   -3.6484 C   0  0  0  0  0  0  0  0  0  0  0  0
  -16.8080  -39.0763   -7.7601 C   0  0  2  0  0  0  0  0  0  0  0  0
  -16.9185  -37.7170   -7.4395 O   0  0  0  0  0  0  0  0  0  0  0  0
  -16.2533  -39.1611   -9.1544 C   0  0  0  0  0  0  0  0  0  0  0  0
  -14.9911  -38.5203   -9.3476 N   0  0  0  0  0  0  0  0  0  0  0  0
  -14.2927  -39.0385  -10.5341 C   0  0  0  0  0  0  0  0  0  0  0  0
  -15.1921  -39.3718  -11.7249 C   0  0  0  0  0  0  0  0  0  0  0  0
  -14.5331  -40.4547  -10.9366 C   0  0  0  0  0  0  0  0  0  0  0  0
  -12.9611  -38.4652  -10.8306 C   0  0  0  0  0  0  0  0  0  0  0  0
  -12.5165  -37.3245  -10.2018 C   0  0  0  0  0  0  0  0  0  0  0  0
  -11.2746  -36.7778  -10.4638 C   0  0  0  0  0  0  0  0  0  0  0  0
  -10.4331  -37.3691  -11.3776 C   0  0  0  0  0  0  0  0  0  0  0  0
  -10.8500  -38.5097  -12.0196 C   0  0  0  0  0  0  0  0  0  0  0  0
  -12.1167  -39.0510  -11.7404 C   0  0  0  0  0  0  0  0  0  0  0  0
  -10.8102  -35.5333   -9.7783 C   0  0  0  0  0  0  0  0  0  0  0  0
  -11.9749  -34.8456   -9.1190 C   0  0  0  0  0  0  0  0  0  0  0  0
  -10.2267  -34.5658  -10.8133 C   0  0  0  0  0  0  0  0  0  0  0  0
  1  2  1  0
  2  3  1  0
  3  4  1  0
  4  5  1  0
  5  6  2  0
  6  7  1  0
  7  8  1  0
  8  9  1  0
  9 10  1  0
  7 11  2  0
 11 12  1  0
 12 13  2  0
 12 14  1  0
 14 15  2  0
 14 16  1  0
 16 17  1  0
 17 18  1  1
 18 19  1  0
 19 20  2  0
 20 21  1  0
 21 22  2  0
 22 23  1  0
 23 24  2  0
 21 25  1  0
 25 26  1  0
 17 27  1  0
 27 28  1  6
 27 29  1  0
 29 30  1  0
 30 31  1  0
 31 32  1  0
 32 33  1  0
 31 34  1  0
 34 35  2  0
 35 36  1  0
 36 37  2  0
 37 38  1  0
 38 39  2  0
 36 40  1  0
 40 41  1  0
 40 42  1  0
 13  5  1  0
 24 19  1  0
 33 31  1  0
 39 34  1  0
M  END
$$$$
