
     RDKit          3D

 29 30  0  2  0  0  0  0  0  0999 V2000
   17.0513   10.0372  -10.4310 C   0  0  0  0  0  0  0  0  0  0  0  0
   15.9557    9.2234  -10.2925 C   0  0  0  0  0  0  0  0  0  0  0  0
   15.7467    8.5504   -9.1195 C   0  0  0  0  0  0  0  0  0  0  0  0
   16.6116    8.6464   -8.0186 C   0  0  0  0  0  0  0  0  0  0  0  0
   17.6889    9.4706   -8.2078 C   0  0  0  0  0  0  0  0  0  0  0  0
   17.9337   10.1709   -9.3871 C   0  0  0  0  0  0  0  0  0  0  0  0
   16.3141    7.8994   -6.8160 C   0  0  0  0  0  0  0  0  0  0  0  0
   17.0782    7.8268   -5.5758 C   0  0  0  0  0  0  0  0  0  0  0  0
   15.2300    7.1904   -6.8099 O   0  0  0  0  0  0  0  0  0  0  0  0
   16.7439    6.8360   -4.6711 O   0  0  0  0  0  0  0  0  0  0  0  0
   17.5670    6.6347   -3.5554 C   0  0  0  0  0  0  0  0  0  0  0  0
   18.6401    7.4315   -3.3041 C   0  0  0  0  0  0  0  0  0  0  0  0
   19.4305    7.2125   -2.2035 C   0  0  0  0  0  0  0  0  0  0  0  0
   19.2018    6.2000   -1.2995 C   0  0  0  0  0  0  0  0  0  0  0  0
   18.1125    5.3926   -1.5563 C   0  0  0  0  0  0  0  0  0  0  0  0
   17.2999    5.5989   -2.6665 C   0  0  0  0  0  0  0  0  0  0  0  0
   20.0610    6.0018   -0.1438 C   0  0  0  0  0  0  0  0  0  0  0  0
   19.5736    6.5976    1.1483 C   0  0  1  0  0  0  0  0  0  0  0  0
   18.3364    5.9947    1.6687 C   0  0  0  0  0  0  0  0  0  0  0  0
   17.3590    6.8057    2.2771 N   0  0  0  0  0  0  0  0  0  0  0  0
   18.1352    4.7672    1.5802 O   0  0  0  0  0  0  0  0  0  0  0  0
   16.2553    6.2280    3.0241 C   0  0  0  0  0  0  0  0  0  0  0  0
   20.5706    6.6950    2.1079 O   0  0  0  0  0  0  0  0  0  0  0  0
   20.3784    7.6908    3.0273 C   0  0  0  0  0  0  0  0  0  0  0  0
   20.2795    9.0046    2.2788 C   0  0  0  0  0  0  0  0  0  0  0  0
   15.0271    9.0484  -11.3153 O   0  0  0  0  0  0  0  0  0  0  0  0
   15.2124    9.5116  -12.6207 C   0  0  0  0  0  0  0  0  0  0  0  0
   17.4595    8.1560    2.1573 O   0  0  0  0  0  0  0  0  0  0  0  0
   17.3127    8.5717    0.8384 C   0  0  0  0  0  0  0  0  0  0  0  0
 26 27  1  0
  2 26  1  0
 28 29  1  0
 20 28  1  0
  1  2  2  0
  2  3  1  0
  3  4  2  0
  4  5  1  0
  5  6  2  0
  6  1  1  0
  4  7  1  0
  7  8  1  0
  7  9  2  0
  8 10  1  0
 10 11  1  0
 11 12  2  0
 12 13  1  0
 13 14  2  0
 14 15  1  0
 15 16  2  0
 16 11  1  0
 14 17  1  0
 18 17  1  6
 18 19  1  0
 19 20  1  0
 19 21  2  0
 20 22  1  0
 18 23  1  0
 23 24  1  0
 24 25  1  0
M  STY  2   1 SUP   2 SUP
M  SLB  2   1   1   2   2
M  SAL   1  2  26  27
M  SBL   1  1   2
M  SMT   1 OCH3
M  SBV   1   2    0.7144    0.4125
M  SAL   2  2  28  29
M  SBL   2  1   4
M  SMT   2 OCH3
M  SBV   2   4   -0.7144   -0.4125
M  END
$$$$
