
     RDKit          3D

 29 30  0  2  0  0  0  0  0  0999 V2000
   21.4669    5.4285   -0.6836 C   0  0  0  0  0  0  0  0  0  0  0  0
   20.5827    4.7149    0.0851 C   0  0  0  0  0  0  0  0  0  0  0  0
   19.2752    5.1094    0.1693 C   0  0  0  0  0  0  0  0  0  0  0  0
   18.7710    6.2330   -0.5035 C   0  0  0  0  0  0  0  0  0  0  0  0
   19.6930    6.9101   -1.2564 C   0  0  0  0  0  0  0  0  0  0  0  0
   21.0311    6.5381   -1.3656 C   0  0  0  0  0  0  0  0  0  0  0  0
   17.3737    6.5784   -0.3582 C   0  0  0  0  0  0  0  0  0  0  0  0
   16.6224    7.6362   -1.0244 C   0  0  0  0  0  0  0  0  0  0  0  0
   16.6695    5.8710    0.4674 O   0  0  0  0  0  0  0  0  0  0  0  0
   15.2843    7.7743   -0.7048 O   0  0  0  0  0  0  0  0  0  0  0  0
   14.7016    9.0467   -0.7728 C   0  0  0  0  0  0  0  0  0  0  0  0
   15.2188   10.0301   -1.5570 C   0  0  0  0  0  0  0  0  0  0  0  0
   14.6283   11.2683   -1.6054 C   0  0  0  0  0  0  0  0  0  0  0  0
   13.5022   11.5960   -0.8850 C   0  0  0  0  0  0  0  0  0  0  0  0
   12.9791   10.5968   -0.0899 C   0  0  0  0  0  0  0  0  0  0  0  0
   13.5634    9.3359   -0.0277 C   0  0  0  0  0  0  0  0  0  0  0  0
   12.9045   12.9187   -0.9650 C   0  0  0  0  0  0  0  0  0  0  0  0
   11.9795   13.1535   -2.1274 C   0  0  1  0  0  0  0  0  0  0  0  0
   10.7116   12.4103   -2.0567 C   0  0  0  0  0  0  0  0  0  0  0  0
    9.5568   13.0338   -1.5459 N   0  0  0  0  0  0  0  0  0  0  0  0
   10.6397   11.2272   -2.4444 O   0  0  0  0  0  0  0  0  0  0  0  0
    8.2907   12.9779   -2.2555 C   0  0  0  0  0  0  0  0  0  0  0  0
   11.8000   14.4995   -2.4112 O   0  0  0  0  0  0  0  0  0  0  0  0
   12.9001   15.1200   -2.9390 C   0  0  0  0  0  0  0  0  0  0  0  0
   13.7182   15.6760   -1.7911 C   0  0  0  0  0  0  0  0  0  0  0  0
   20.9661    3.5822    0.7988 O   0  0  0  0  0  0  0  0  0  0  0  0
   20.4661    3.2533    2.0615 C   0  0  0  0  0  0  0  0  0  0  0  0
    9.6390   13.6992   -0.3633 O   0  0  0  0  0  0  0  0  0  0  0  0
    9.7956   12.8300    0.7108 C   0  0  0  0  0  0  0  0  0  0  0  0
 26 27  1  0
  2 26  1  0
 28 29  1  0
 20 28  1  0
  1  2  2  0
  2  3  1  0
  3  4  2  0
  4  5  1  0
  5  6  2  0
  6  1  1  0
  4  7  1  0
  7  8  1  0
  7  9  2  0
  8 10  1  0
 10 11  1  0
 11 12  2  0
 12 13  1  0
 13 14  2  0
 14 15  1  0
 15 16  2  0
 16 11  1  0
 14 17  1  0
 18 17  1  1
 18 19  1  0
 19 20  1  0
 19 21  2  0
 20 22  1  0
 18 23  1  0
 23 24  1  0
 24 25  1  0
M  STY  2   1 SUP   2 SUP
M  SLB  2   1   1   2   2
M  SAL   1  2  26  27
M  SBL   1  1   2
M  SMT   1 OCH3
M  SBV   1   2    0.7144    0.4125
M  SAL   2  2  28  29
M  SBL   2  1   4
M  SMT   2 OCH3
M  SBV   2   4   -0.7144   -0.4125
M  END
$$$$
