
     RDKit          3D

 29 30  0  2  0  0  0  0  0  0999 V2000
   17.9058    9.8233   -7.7037 C   0  0  0  0  0  0  0  0  0  0  0  0
   16.7318    9.1409   -7.8988 C   0  0  0  0  0  0  0  0  0  0  0  0
   16.1705    8.4357   -6.8692 C   0  0  0  0  0  0  0  0  0  0  0  0
   16.7412    8.3674   -5.5890 C   0  0  0  0  0  0  0  0  0  0  0  0
   17.9111    9.0649   -5.4465 C   0  0  0  0  0  0  0  0  0  0  0  0
   18.5113    9.7933   -6.4713 C   0  0  0  0  0  0  0  0  0  0  0  0
   16.0797    7.5978   -4.5581 C   0  0  0  0  0  0  0  0  0  0  0  0
   16.5245    7.3276   -3.1956 C   0  0  0  0  0  0  0  0  0  0  0  0
   14.9371    7.0649   -4.8553 O   0  0  0  0  0  0  0  0  0  0  0  0
   17.7157    6.6450   -3.0311 O   0  0  0  0  0  0  0  0  0  0  0  0
   18.2199    6.4692   -1.7358 C   0  0  0  0  0  0  0  0  0  0  0  0
   17.9255    7.3350   -0.7292 C   0  0  0  0  0  0  0  0  0  0  0  0
   18.4328    7.1396    0.5312 C   0  0  0  0  0  0  0  0  0  0  0  0
   19.2528    6.0839    0.8594 C   0  0  0  0  0  0  0  0  0  0  0  0
   19.5504    5.2066   -0.1634 C   0  0  0  0  0  0  0  0  0  0  0  0
   19.0458    5.3881   -1.4471 C   0  0  0  0  0  0  0  0  0  0  0  0
   19.7684    5.9098    2.2074 C   0  0  0  0  0  0  0  0  0  0  0  0
   18.7658    5.4877    3.2459 C   0  0  1  0  0  0  0  0  0  0  0  0
   18.2150    4.1377    3.0476 C   0  0  0  0  0  0  0  0  0  0  0  0
   16.9372    3.8178    3.5455 N   0  0  0  0  0  0  0  0  0  0  0  0
   18.8648    3.2632    2.4410 O   0  0  0  0  0  0  0  0  0  0  0  0
   16.3780    2.4859    3.3931 C   0  0  0  0  0  0  0  0  0  0  0  0
   19.2081    5.7040    4.5428 O   0  0  0  0  0  0  0  0  0  0  0  0
   20.3649    6.4301    4.6344 C   0  0  0  0  0  0  0  0  0  0  0  0
   21.5196    5.4561    4.7514 C   0  0  0  0  0  0  0  0  0  0  0  0
   16.0723    9.1345   -9.1253 O   0  0  0  0  0  0  0  0  0  0  0  0
   14.9132    8.3969   -9.3803 C   0  0  0  0  0  0  0  0  0  0  0  0
   16.2200    4.7824    4.1805 O   0  0  0  0  0  0  0  0  0  0  0  0
   15.2847    5.3726    3.3374 C   0  0  0  0  0  0  0  0  0  0  0  0
 26 27  1  0
  2 26  1  0
 28 29  1  0
 20 28  1  0
  1  2  2  0
  2  3  1  0
  3  4  2  0
  4  5  1  0
  5  6  2  0
  6  1  1  0
  4  7  1  0
  7  8  1  0
  7  9  2  0
  8 10  1  0
 10 11  1  0
 11 12  2  0
 12 13  1  0
 13 14  2  0
 14 15  1  0
 15 16  2  0
 16 11  1  0
 14 17  1  0
 18 17  1  6
 18 19  1  0
 19 20  1  0
 19 21  2  0
 20 22  1  0
 18 23  1  0
 23 24  1  0
 24 25  1  0
M  STY  2   1 SUP   2 SUP
M  SLB  2   1   1   2   2
M  SAL   1  2  26  27
M  SBL   1  1   2
M  SMT   1 OCH3
M  SBV   1   2    0.7144    0.4125
M  SAL   2  2  28  29
M  SBL   2  1   4
M  SMT   2 OCH3
M  SBV   2   4   -0.7144   -0.4125
M  END
$$$$
