
     RDKit          3D

 29 30  0  2  0  0  0  0  0  0999 V2000
   15.7570    9.4157  -12.4216 C   0  0  0  0  0  0  0  0  0  0  0  0
   16.9381    9.9999  -12.0399 C   0  0  0  0  0  0  0  0  0  0  0  0
   17.3206    9.9763  -10.7263 C   0  0  0  0  0  0  0  0  0  0  0  0
   16.5539    9.3726   -9.7178 C   0  0  0  0  0  0  0  0  0  0  0  0
   15.3853    8.8044  -10.1504 C   0  0  0  0  0  0  0  0  0  0  0  0
   14.9641    8.8092  -11.4784 C   0  0  0  0  0  0  0  0  0  0  0  0
   17.0343    9.3939   -8.3534 C   0  0  0  0  0  0  0  0  0  0  0  0
   16.4518    8.7670   -7.1723 C   0  0  0  0  0  0  0  0  0  0  0  0
   18.1261   10.0499   -8.1181 O   0  0  0  0  0  0  0  0  0  0  0  0
   17.1339    7.7070   -6.6040 O   0  0  0  0  0  0  0  0  0  0  0  0
   17.0489    7.5140   -5.2189 C   0  0  0  0  0  0  0  0  0  0  0  0
   15.8907    7.7213   -4.5368 C   0  0  0  0  0  0  0  0  0  0  0  0
   15.8345    7.5249   -3.1795 C   0  0  0  0  0  0  0  0  0  0  0  0
   16.9145    7.1156   -2.4308 C   0  0  0  0  0  0  0  0  0  0  0  0
   18.0887    6.9058   -3.1248 C   0  0  0  0  0  0  0  0  0  0  0  0
   18.1652    7.0997   -4.5002 C   0  0  0  0  0  0  0  0  0  0  0  0
   16.8144    6.9161   -0.9943 C   0  0  0  0  0  0  0  0  0  0  0  0
   16.8012    8.1648   -0.1561 C   0  0  1  0  0  0  0  0  0  0  0  0
   15.9955    8.0662    1.0711 C   0  0  0  0  0  0  0  0  0  0  0  0
   14.5904    8.1278    0.9985 N   0  0  0  0  0  0  0  0  0  0  0  0
   16.5386    7.9278    2.1851 O   0  0  0  0  0  0  0  0  0  0  0  0
   13.7532    7.2207    1.7640 C   0  0  0  0  0  0  0  0  0  0  0  0
   18.0708    8.6750    0.0725 O   0  0  0  0  0  0  0  0  0  0  0  0
   18.0927    9.8492    0.7758 C   0  0  0  0  0  0  0  0  0  0  0  0
   18.2720    9.5121    2.2421 C   0  0  0  0  0  0  0  0  0  0  0  0
   17.7830   10.6293  -12.9506 O   0  0  0  0  0  0  0  0  0  0  0  0
   17.3706   11.0879  -14.2044 C   0  0  0  0  0  0  0  0  0  0  0  0
   14.0153    9.0591    0.1923 O   0  0  0  0  0  0  0  0  0  0  0  0
   13.8800   10.2862    0.8323 C   0  0  0  0  0  0  0  0  0  0  0  0
 26 27  1  0
  2 26  1  0
 28 29  1  0
 20 28  1  0
  1  2  2  0
  2  3  1  0
  3  4  2  0
  4  5  1  0
  5  6  2  0
  6  1  1  0
  4  7  1  0
  7  8  1  0
  7  9  2  0
  8 10  1  0
 10 11  1  0
 11 12  2  0
 12 13  1  0
 13 14  2  0
 14 15  1  0
 15 16  2  0
 16 11  1  0
 14 17  1  0
 18 17  1  1
 18 19  1  0
 19 20  1  0
 19 21  2  0
 20 22  1  0
 18 23  1  0
 23 24  1  0
 24 25  1  0
M  STY  2   1 SUP   2 SUP
M  SLB  2   1   1   2   2
M  SAL   1  2  26  27
M  SBL   1  1   2
M  SMT   1 OCH3
M  SBV   1   2    0.7144    0.4125
M  SAL   2  2  28  29
M  SBL   2  1   4
M  SMT   2 OCH3
M  SBV   2   4   -0.7144   -0.4125
M  END
$$$$
