
     RDKit          3D

 29 30  0  2  0  0  0  0  0  0999 V2000
   22.3713    6.4371    1.5836 C   0  0  0  0  0  0  0  0  0  0  0  0
   22.3154    6.9873    0.3282 C   0  0  0  0  0  0  0  0  0  0  0  0
   21.1496    6.9440   -0.3870 C   0  0  0  0  0  0  0  0  0  0  0  0
   19.9744    6.3531    0.1020 C   0  0  0  0  0  0  0  0  0  0  0  0
   20.0828    5.8190    1.3584 C   0  0  0  0  0  0  0  0  0  0  0  0
   21.2523    5.8446    2.1153 C   0  0  0  0  0  0  0  0  0  0  0  0
   18.7855    6.3519   -0.7222 C   0  0  0  0  0  0  0  0  0  0  0  0
   17.4275    5.9599   -0.3622 C   0  0  0  0  0  0  0  0  0  0  0  0
   18.9128    6.7468   -1.9492 O   0  0  0  0  0  0  0  0  0  0  0  0
   16.4463    6.0769   -1.3294 O   0  0  0  0  0  0  0  0  0  0  0  0
   15.8542    7.3286   -1.5427 C   0  0  0  0  0  0  0  0  0  0  0  0
   14.9125    7.5207   -2.5049 C   0  0  0  0  0  0  0  0  0  0  0  0
   14.3481    8.7577   -2.6930 C   0  0  0  0  0  0  0  0  0  0  0  0
   14.6838    9.8623   -1.9436 C   0  0  0  0  0  0  0  0  0  0  0  0
   15.6396    9.6653   -0.9679 C   0  0  0  0  0  0  0  0  0  0  0  0
   16.2230    8.4192   -0.7623 C   0  0  0  0  0  0  0  0  0  0  0  0
   14.0613   11.1560   -2.1719 C   0  0  0  0  0  0  0  0  0  0  0  0
   12.9217   11.5085   -1.2559 C   0  0  1  0  0  0  0  0  0  0  0  0
   12.2188   12.7520   -1.6088 C   0  0  0  0  0  0  0  0  0  0  0  0
   12.9032   13.9823   -1.5753 N   0  0  0  0  0  0  0  0  0  0  0  0
   11.0167   12.7368   -1.9403 O   0  0  0  0  0  0  0  0  0  0  0  0
   14.2119   14.1029   -0.9568 C   0  0  0  0  0  0  0  0  0  0  0  0
   12.0582   10.4456   -1.0347 O   0  0  0  0  0  0  0  0  0  0  0  0
   11.0308   10.7188   -0.1722 C   0  0  0  0  0  0  0  0  0  0  0  0
   10.7051    9.4466    0.5837 C   0  0  0  0  0  0  0  0  0  0  0  0
   23.4168    7.6011   -0.2628 O   0  0  0  0  0  0  0  0  0  0  0  0
   23.3710    8.2609   -1.4937 C   0  0  0  0  0  0  0  0  0  0  0  0
   12.3185   15.0739   -2.1361 O   0  0  0  0  0  0  0  0  0  0  0  0
   12.4461   16.2011   -1.3319 C   0  0  0  0  0  0  0  0  0  0  0  0
 26 27  1  0
  2 26  1  0
 28 29  1  0
 20 28  1  0
  1  2  2  0
  2  3  1  0
  3  4  2  0
  4  5  1  0
  5  6  2  0
  6  1  1  0
  4  7  1  0
  7  8  1  0
  7  9  2  0
  8 10  1  0
 10 11  1  0
 11 12  2  0
 12 13  1  0
 13 14  2  0
 14 15  1  0
 15 16  2  0
 16 11  1  0
 14 17  1  0
 18 17  1  6
 18 19  1  0
 19 20  1  0
 19 21  2  0
 20 22  1  0
 18 23  1  0
 23 24  1  0
 24 25  1  0
M  STY  2   1 SUP   2 SUP
M  SLB  2   1   1   2   2
M  SAL   1  2  26  27
M  SBL   1  1   2
M  SMT   1 OCH3
M  SBV   1   2    0.7144    0.4125
M  SAL   2  2  28  29
M  SBL   2  1   4
M  SMT   2 OCH3
M  SBV   2   4   -0.7144   -0.4125
M  END
$$$$
