
     RDKit          3D

 29 30  0  2  0  0  0  0  0  0999 V2000
   15.6815    9.2549    1.4534 C   0  0  0  0  0  0  0  0  0  0  0  0
   16.4701    8.1333    1.4980 C   0  0  0  0  0  0  0  0  0  0  0  0
   16.9713    7.6021    0.3408 C   0  0  0  0  0  0  0  0  0  0  0  0
   16.7188    8.1528   -0.9251 C   0  0  0  0  0  0  0  0  0  0  0  0
   15.9272    9.2703   -0.9151 C   0  0  0  0  0  0  0  0  0  0  0  0
   15.3998    9.8386    0.2425 C   0  0  0  0  0  0  0  0  0  0  0  0
   17.2893    7.5260   -2.0974 C   0  0  0  0  0  0  0  0  0  0  0  0
   16.9847    7.7731   -3.5022 C   0  0  0  0  0  0  0  0  0  0  0  0
   18.1947    6.6197   -1.9055 O   0  0  0  0  0  0  0  0  0  0  0  0
   17.9036    7.3485   -4.4442 O   0  0  0  0  0  0  0  0  0  0  0  0
   17.6803    7.6574   -5.7924 C   0  0  0  0  0  0  0  0  0  0  0  0
   18.3096    8.6972   -6.4025 C   0  0  0  0  0  0  0  0  0  0  0  0
   18.0729    8.9783   -7.7250 C   0  0  0  0  0  0  0  0  0  0  0  0
   17.2065    8.2497   -8.5081 C   0  0  0  0  0  0  0  0  0  0  0  0
   16.5689    7.1951   -7.8871 C   0  0  0  0  0  0  0  0  0  0  0  0
   16.7959    6.8948   -6.5478 C   0  0  0  0  0  0  0  0  0  0  0  0
   16.9842    8.5776   -9.9068 C   0  0  0  0  0  0  0  0  0  0  0  0
   15.8208    9.4869  -10.1925 C   0  0  1  0  0  0  0  0  0  0  0  0
   15.8863   10.1692  -11.4945 C   0  0  0  0  0  0  0  0  0  0  0  0
   15.4307   11.4959  -11.6186 N   0  0  0  0  0  0  0  0  0  0  0  0
   16.3420    9.5890  -12.4999 O   0  0  0  0  0  0  0  0  0  0  0  0
   15.7573   12.5036  -10.6249 C   0  0  0  0  0  0  0  0  0  0  0  0
   14.5937    8.8823   -9.9621 O   0  0  0  0  0  0  0  0  0  0  0  0
   13.7421    9.6082   -9.1737 C   0  0  0  0  0  0  0  0  0  0  0  0
   14.2212    9.4944   -7.7407 C   0  0  0  0  0  0  0  0  0  0  0  0
   16.7898    7.4981    2.6953 O   0  0  0  0  0  0  0  0  0  0  0  0
   17.0951    6.1382    2.7961 C   0  0  0  0  0  0  0  0  0  0  0  0
   14.6701   11.8305  -12.6946 O   0  0  0  0  0  0  0  0  0  0  0  0
   15.0321   11.1120  -13.8289 C   0  0  0  0  0  0  0  0  0  0  0  0
 26 27  1  0
  2 26  1  0
 28 29  1  0
 20 28  1  0
  1  2  2  0
  2  3  1  0
  3  4  2  0
  4  5  1  0
  5  6  2  0
  6  1  1  0
  4  7  1  0
  7  8  1  0
  7  9  2  0
  8 10  1  0
 10 11  1  0
 11 12  2  0
 12 13  1  0
 13 14  2  0
 14 15  1  0
 15 16  2  0
 16 11  1  0
 14 17  1  0
 18 17  1  6
 18 19  1  0
 19 20  1  0
 19 21  2  0
 20 22  1  0
 18 23  1  0
 23 24  1  0
 24 25  1  0
M  STY  2   1 SUP   2 SUP
M  SLB  2   1   1   2   2
M  SAL   1  2  26  27
M  SBL   1  1   2
M  SMT   1 OCH3
M  SBV   1   2    0.7144    0.4125
M  SAL   2  2  28  29
M  SBL   2  1   4
M  SMT   2 OCH3
M  SBV   2   4   -0.7144   -0.4125
M  END
$$$$
