
     RDKit          3D

 29 30  0  2  0  0  0  0  0  0999 V2000
   19.1848    3.0022    5.4783 C   0  0  0  0  0  0  0  0  0  0  0  0
   20.1990    2.6116    4.6412 C   0  0  0  0  0  0  0  0  0  0  0  0
   20.4231    3.2899    3.4741 C   0  0  0  0  0  0  0  0  0  0  0  0
   19.6546    4.3930    3.0715 C   0  0  0  0  0  0  0  0  0  0  0  0
   18.6560    4.7422    3.9412 C   0  0  0  0  0  0  0  0  0  0  0  0
   18.3988    4.0755    5.1372 C   0  0  0  0  0  0  0  0  0  0  0  0
   19.9610    5.0518    1.8206 C   0  0  0  0  0  0  0  0  0  0  0  0
   19.0672    5.3598    0.7100 C   0  0  0  0  0  0  0  0  0  0  0  0
   21.1854    5.4307    1.6330 O   0  0  0  0  0  0  0  0  0  0  0  0
   19.1814    6.6042    0.1181 O   0  0  0  0  0  0  0  0  0  0  0  0
   18.4618    6.8621   -1.0560 C   0  0  0  0  0  0  0  0  0  0  0  0
   18.5599    6.0567   -2.1475 C   0  0  0  0  0  0  0  0  0  0  0  0
   17.8437    6.3321   -3.2856 C   0  0  0  0  0  0  0  0  0  0  0  0
   16.9982    7.4120   -3.4024 C   0  0  0  0  0  0  0  0  0  0  0  0
   16.9001    8.2279   -2.2938 C   0  0  0  0  0  0  0  0  0  0  0  0
   17.6180    7.9651   -1.1316 C   0  0  0  0  0  0  0  0  0  0  0  0
   16.2543    7.6687   -4.6247 C   0  0  0  0  0  0  0  0  0  0  0  0
   16.9039    8.6057   -5.6057 C   0  0  1  0  0  0  0  0  0  0  0  0
   16.1049    8.8750   -6.8115 C   0  0  0  0  0  0  0  0  0  0  0  0
   16.5302    8.3870   -8.0622 N   0  0  0  0  0  0  0  0  0  0  0  0
   15.0480    9.5335   -6.7462 O   0  0  0  0  0  0  0  0  0  0  0  0
   17.8658    7.8476   -8.2489 C   0  0  0  0  0  0  0  0  0  0  0  0
   17.3863    9.7618   -5.0097 O   0  0  0  0  0  0  0  0  0  0  0  0
   16.5326   10.8302   -5.0697 C   0  0  0  0  0  0  0  0  0  0  0  0
   15.1678   10.3640   -4.6052 C   0  0  0  0  0  0  0  0  0  0  0  0
   21.0283    1.5318    4.9337 O   0  0  0  0  0  0  0  0  0  0  0  0
   20.6463    0.4538    5.7366 C   0  0  0  0  0  0  0  0  0  0  0  0
   15.6653    8.4259   -9.1103 O   0  0  0  0  0  0  0  0  0  0  0  0
   16.0357    9.3787  -10.0530 C   0  0  0  0  0  0  0  0  0  0  0  0
 26 27  1  0
  2 26  1  0
 28 29  1  0
 20 28  1  0
  1  2  2  0
  2  3  1  0
  3  4  2  0
  4  5  1  0
  5  6  2  0
  6  1  1  0
  4  7  1  0
  7  8  1  0
  7  9  2  0
  8 10  1  0
 10 11  1  0
 11 12  2  0
 12 13  1  0
 13 14  2  0
 14 15  1  0
 15 16  2  0
 16 11  1  0
 14 17  1  0
 18 17  1  1
 18 19  1  0
 19 20  1  0
 19 21  2  0
 20 22  1  0
 18 23  1  0
 23 24  1  0
 24 25  1  0
M  STY  2   1 SUP   2 SUP
M  SLB  2   1   1   2   2
M  SAL   1  2  26  27
M  SBL   1  1   2
M  SMT   1 OCH3
M  SBV   1   2    0.7144    0.4125
M  SAL   2  2  28  29
M  SBL   2  1   4
M  SMT   2 OCH3
M  SBV   2   4   -0.7144   -0.4125
M  END
$$$$
