
     RDKit          3D

 29 30  0  2  0  0  0  0  0  0999 V2000
   20.0226    6.4163   -3.0878 C   0  0  0  0  0  0  0  0  0  0  0  0
   18.7691    5.9298   -3.3600 C   0  0  0  0  0  0  0  0  0  0  0  0
   17.6631    6.5919   -2.9008 C   0  0  0  0  0  0  0  0  0  0  0  0
   17.7376    7.7728   -2.1464 C   0  0  0  0  0  0  0  0  0  0  0  0
   19.0101    8.2163   -1.9024 C   0  0  0  0  0  0  0  0  0  0  0  0
   20.1584    7.5689   -2.3535 C   0  0  0  0  0  0  0  0  0  0  0  0
   16.5164    8.4077   -1.7010 C   0  0  0  0  0  0  0  0  0  0  0  0
   16.3433    9.7172   -1.0825 C   0  0  0  0  0  0  0  0  0  0  0  0
   15.4123    7.7492   -1.8597 O   0  0  0  0  0  0  0  0  0  0  0  0
   15.7620   10.7158   -1.8420 O   0  0  0  0  0  0  0  0  0  0  0  0
   14.6724   11.4194   -1.3122 C   0  0  0  0  0  0  0  0  0  0  0  0
   14.5200   12.7566   -1.5079 C   0  0  0  0  0  0  0  0  0  0  0  0
   13.4429   13.4220   -0.9777 C   0  0  0  0  0  0  0  0  0  0  0  0
   12.4664   12.8030   -0.2308 C   0  0  0  0  0  0  0  0  0  0  0  0
   12.6230   11.4462   -0.0333 C   0  0  0  0  0  0  0  0  0  0  0  0
   13.7078   10.7546   -0.5626 C   0  0  0  0  0  0  0  0  0  0  0  0
   11.3387   13.5424    0.3121 C   0  0  0  0  0  0  0  0  0  0  0  0
   11.5860   14.2596    1.6107 C   0  0  1  0  0  0  0  0  0  0  0  0
   10.4325   15.0209    2.1155 C   0  0  0  0  0  0  0  0  0  0  0  0
   10.2616   16.3690    1.7460 N   0  0  0  0  0  0  0  0  0  0  0  0
    9.5952   14.4896    2.8716 O   0  0  0  0  0  0  0  0  0  0  0  0
    8.9753   17.0313    1.8755 C   0  0  0  0  0  0  0  0  0  0  0  0
   12.1585   13.4452    2.5768 O   0  0  0  0  0  0  0  0  0  0  0  0
   11.3771   13.2397    3.6818 C   0  0  0  0  0  0  0  0  0  0  0  0
   11.6971   14.3262    4.6884 C   0  0  0  0  0  0  0  0  0  0  0  0
   18.5689    4.7666   -4.0990 O   0  0  0  0  0  0  0  0  0  0  0  0
   17.5469    4.6095   -5.0389 C   0  0  0  0  0  0  0  0  0  0  0  0
   11.3287   17.0563    1.2593 O   0  0  0  0  0  0  0  0  0  0  0  0
   11.1446   18.4317    1.3497 C   0  0  0  0  0  0  0  0  0  0  0  0
 26 27  1  0
  2 26  1  0
 28 29  1  0
 20 28  1  0
  1  2  2  0
  2  3  1  0
  3  4  2  0
  4  5  1  0
  5  6  2  0
  6  1  1  0
  4  7  1  0
  7  8  1  0
  7  9  2  0
  8 10  1  0
 10 11  1  0
 11 12  2  0
 12 13  1  0
 13 14  2  0
 14 15  1  0
 15 16  2  0
 16 11  1  0
 14 17  1  0
 18 17  1  6
 18 19  1  0
 19 20  1  0
 19 21  2  0
 20 22  1  0
 18 23  1  0
 23 24  1  0
 24 25  1  0
M  STY  2   1 SUP   2 SUP
M  SLB  2   1   1   2   2
M  SAL   1  2  26  27
M  SBL   1  1   2
M  SMT   1 OCH3
M  SBV   1   2    0.7144    0.4125
M  SAL   2  2  28  29
M  SBL   2  1   4
M  SMT   2 OCH3
M  SBV   2   4   -0.7144   -0.4125
M  END
$$$$
