
     RDKit          3D

 29 30  0  2  0  0  0  0  0  0999 V2000
   21.2990    5.2737    3.6103 C   0  0  0  0  0  0  0  0  0  0  0  0
   21.3889    5.7827    2.3396 C   0  0  0  0  0  0  0  0  0  0  0  0
   20.2613    5.9236    1.5772 C   0  0  0  0  0  0  0  0  0  0  0  0
   18.9821    5.5679    2.0315 C   0  0  0  0  0  0  0  0  0  0  0  0
   18.9467    5.0655    3.3050 C   0  0  0  0  0  0  0  0  0  0  0  0
   20.0731    4.9079    4.1097 C   0  0  0  0  0  0  0  0  0  0  0  0
   17.8434    5.7507    1.1581 C   0  0  0  0  0  0  0  0  0  0  0  0
   17.7928    5.6894   -0.2982 C   0  0  0  0  0  0  0  0  0  0  0  0
   16.7019    6.0040    1.7153 O   0  0  0  0  0  0  0  0  0  0  0  0
   16.7247    6.2980   -0.9312 O   0  0  0  0  0  0  0  0  0  0  0  0
   16.9435    6.9423   -2.1559 C   0  0  0  0  0  0  0  0  0  0  0  0
   16.9675    8.2983   -2.2574 C   0  0  0  0  0  0  0  0  0  0  0  0
   17.1839    8.9044   -3.4698 C   0  0  0  0  0  0  0  0  0  0  0  0
   17.3866    8.2048   -4.6378 C   0  0  0  0  0  0  0  0  0  0  0  0
   17.3618    6.8291   -4.5326 C   0  0  0  0  0  0  0  0  0  0  0  0
   17.1439    6.1968   -3.3128 C   0  0  0  0  0  0  0  0  0  0  0  0
   17.6151    8.8837   -5.9028 C   0  0  0  0  0  0  0  0  0  0  0  0
   16.3904    9.4171   -6.5939 C   0  0  1  0  0  0  0  0  0  0  0  0
   16.6716   10.2765   -7.7546 C   0  0  0  0  0  0  0  0  0  0  0  0
   16.4265   11.6614   -7.6820 N   0  0  0  0  0  0  0  0  0  0  0  0
   17.1274    9.7970   -8.8117 O   0  0  0  0  0  0  0  0  0  0  0  0
   16.7052   12.5385   -8.8057 C   0  0  0  0  0  0  0  0  0  0  0  0
   15.4527    8.4321   -6.8673 O   0  0  0  0  0  0  0  0  0  0  0  0
   14.1910    8.9023   -7.1143 C   0  0  0  0  0  0  0  0  0  0  0  0
   13.2642    7.7099   -7.2377 C   0  0  0  0  0  0  0  0  0  0  0  0
   22.6035    6.1706    1.7797 O   0  0  0  0  0  0  0  0  0  0  0  0
   23.8353    6.0346    2.4252 C   0  0  0  0  0  0  0  0  0  0  0  0
   15.9181   12.1783   -6.5321 O   0  0  0  0  0  0  0  0  0  0  0  0
   14.5409   12.3557   -6.6078 C   0  0  0  0  0  0  0  0  0  0  0  0
 26 27  1  0
  2 26  1  0
 28 29  1  0
 20 28  1  0
  1  2  2  0
  2  3  1  0
  3  4  2  0
  4  5  1  0
  5  6  2  0
  6  1  1  0
  4  7  1  0
  7  8  1  0
  7  9  2  0
  8 10  1  0
 10 11  1  0
 11 12  2  0
 12 13  1  0
 13 14  2  0
 14 15  1  0
 15 16  2  0
 16 11  1  0
 14 17  1  0
 18 17  1  6
 18 19  1  0
 19 20  1  0
 19 21  2  0
 20 22  1  0
 18 23  1  0
 23 24  1  0
 24 25  1  0
M  STY  2   1 SUP   2 SUP
M  SLB  2   1   1   2   2
M  SAL   1  2  26  27
M  SBL   1  1   2
M  SMT   1 OCH3
M  SBV   1   2    0.7144    0.4125
M  SAL   2  2  28  29
M  SBL   2  1   4
M  SMT   2 OCH3
M  SBV   2   4   -0.7144   -0.4125
M  END
$$$$
