
     RDKit          3D

 29 30  0  2  0  0  0  0  0  0999 V2000
   17.2897    9.5271  -10.6362 C   0  0  0  0  0  0  0  0  0  0  0  0
   16.2959    8.6045  -10.4286 C   0  0  0  0  0  0  0  0  0  0  0  0
   16.1234    8.0510   -9.1891 C   0  0  0  0  0  0  0  0  0  0  0  0
   16.9261    8.3809   -8.0863 C   0  0  0  0  0  0  0  0  0  0  0  0
   17.9026    9.3055   -8.3459 C   0  0  0  0  0  0  0  0  0  0  0  0
   18.1074    9.8897   -9.5941 C   0  0  0  0  0  0  0  0  0  0  0  0
   16.6737    7.7470   -6.8107 C   0  0  0  0  0  0  0  0  0  0  0  0
   17.3295    7.9838   -5.5297 C   0  0  0  0  0  0  0  0  0  0  0  0
   15.7463    6.8436   -6.7695 O   0  0  0  0  0  0  0  0  0  0  0  0
   17.0169    7.1388   -4.4808 O   0  0  0  0  0  0  0  0  0  0  0  0
   16.6495    7.6978   -3.2499 C   0  0  0  0  0  0  0  0  0  0  0  0
   17.2859    8.7857   -2.7389 C   0  0  0  0  0  0  0  0  0  0  0  0
   16.9060    9.3138   -1.5302 C   0  0  0  0  0  0  0  0  0  0  0  0
   15.8826    8.7964   -0.7688 C   0  0  0  0  0  0  0  0  0  0  0  0
   15.2381    7.6926   -1.2891 C   0  0  0  0  0  0  0  0  0  0  0  0
   15.6090    7.1432   -2.5122 C   0  0  0  0  0  0  0  0  0  0  0  0
   15.5080    9.3860    0.5061 C   0  0  0  0  0  0  0  0  0  0  0  0
   14.5670   10.5572    0.4381 C   0  0  1  0  0  0  0  0  0  0  0  0
   13.3812   10.3378   -0.4051 C   0  0  0  0  0  0  0  0  0  0  0  0
   13.0961   11.2213   -1.4640 N   0  0  0  0  0  0  0  0  0  0  0  0
   12.6166    9.3748   -0.1976 O   0  0  0  0  0  0  0  0  0  0  0  0
   11.8896   11.0823   -2.2607 C   0  0  0  0  0  0  0  0  0  0  0  0
   14.2519   11.0699    1.6880 O   0  0  0  0  0  0  0  0  0  0  0  0
   14.4119   12.4246    1.8028 C   0  0  0  0  0  0  0  0  0  0  0  0
   14.6791   12.7414    3.2602 C   0  0  0  0  0  0  0  0  0  0  0  0
   15.4364    8.1979  -11.4461 O   0  0  0  0  0  0  0  0  0  0  0  0
   14.4032    7.2742  -11.2677 C   0  0  0  0  0  0  0  0  0  0  0  0
   13.9746   12.2219   -1.7381 O   0  0  0  0  0  0  0  0  0  0  0  0
   14.4047   12.8652   -0.5827 C   0  0  0  0  0  0  0  0  0  0  0  0
 26 27  1  0
  2 26  1  0
 28 29  1  0
 20 28  1  0
  1  2  2  0
  2  3  1  0
  3  4  2  0
  4  5  1  0
  5  6  2  0
  6  1  1  0
  4  7  1  0
  7  8  1  0
  7  9  2  0
  8 10  1  0
 10 11  1  0
 11 12  2  0
 12 13  1  0
 13 14  2  0
 14 15  1  0
 15 16  2  0
 16 11  1  0
 14 17  1  0
 18 17  1  1
 18 19  1  0
 19 20  1  0
 19 21  2  0
 20 22  1  0
 18 23  1  0
 23 24  1  0
 24 25  1  0
M  STY  2   1 SUP   2 SUP
M  SLB  2   1   1   2   2
M  SAL   1  2  26  27
M  SBL   1  1   2
M  SMT   1 OCH3
M  SBV   1   2    0.7144    0.4125
M  SAL   2  2  28  29
M  SBL   2  1   4
M  SMT   2 OCH3
M  SBV   2   4   -0.7144   -0.4125
M  END
$$$$
