
     RDKit          3D

 29 30  0  2  0  0  0  0  0  0999 V2000
   20.0626    4.4489    5.4902 C   0  0  0  0  0  0  0  0  0  0  0  0
   19.3866    3.3665    4.9869 C   0  0  0  0  0  0  0  0  0  0  0  0
   18.9294    3.3839    3.6973 C   0  0  0  0  0  0  0  0  0  0  0  0
   19.1166    4.4748    2.8347 C   0  0  0  0  0  0  0  0  0  0  0  0
   19.7965    5.5288    3.3847 C   0  0  0  0  0  0  0  0  0  0  0  0
   20.2763    5.5464    4.6926 C   0  0  0  0  0  0  0  0  0  0  0  0
   18.5996    4.4084    1.4852 C   0  0  0  0  0  0  0  0  0  0  0  0
   18.9686    5.2148    0.3273 C   0  0  0  0  0  0  0  0  0  0  0  0
   17.6852    3.5238    1.2422 O   0  0  0  0  0  0  0  0  0  0  0  0
   18.3560    4.9274   -0.8786 O   0  0  0  0  0  0  0  0  0  0  0  0
   18.0216    5.9846   -1.7349 C   0  0  0  0  0  0  0  0  0  0  0  0
   18.9706    6.6861   -2.4109 C   0  0  0  0  0  0  0  0  0  0  0  0
   18.6158    7.7178   -3.2440 C   0  0  0  0  0  0  0  0  0  0  0  0
   17.3117    8.1067   -3.4505 C   0  0  0  0  0  0  0  0  0  0  0  0
   16.3504    7.3937   -2.7636 C   0  0  0  0  0  0  0  0  0  0  0  0
   16.6905    6.3451   -1.9150 C   0  0  0  0  0  0  0  0  0  0  0  0
   16.9759    9.2037   -4.3433 C   0  0  0  0  0  0  0  0  0  0  0  0
   16.7598    8.8356   -5.7855 C   0  0  1  0  0  0  0  0  0  0  0  0
   15.4264    8.2881   -6.0812 C   0  0  0  0  0  0  0  0  0  0  0  0
   15.2930    7.1895   -6.9521 N   0  0  0  0  0  0  0  0  0  0  0  0
   14.4025    8.7835   -5.5702 O   0  0  0  0  0  0  0  0  0  0  0  0
   14.0290    6.4887   -7.0969 C   0  0  0  0  0  0  0  0  0  0  0  0
   17.1350    9.8433   -6.6619 O   0  0  0  0  0  0  0  0  0  0  0  0
   16.0898   10.4894   -7.2651 C   0  0  0  0  0  0  0  0  0  0  0  0
   15.3793   11.3135   -6.2106 C   0  0  0  0  0  0  0  0  0  0  0  0
   19.1401    2.2263    5.7475 O   0  0  0  0  0  0  0  0  0  0  0  0
   18.3594    1.1536    5.3089 C   0  0  0  0  0  0  0  0  0  0  0  0
   16.3754    6.7843   -7.6678 O   0  0  0  0  0  0  0  0  0  0  0  0
   17.1690    7.8569   -8.0594 C   0  0  0  0  0  0  0  0  0  0  0  0
 26 27  1  0
  2 26  1  0
 28 29  1  0
 20 28  1  0
  1  2  2  0
  2  3  1  0
  3  4  2  0
  4  5  1  0
  5  6  2  0
  6  1  1  0
  4  7  1  0
  7  8  1  0
  7  9  2  0
  8 10  1  0
 10 11  1  0
 11 12  2  0
 12 13  1  0
 13 14  2  0
 14 15  1  0
 15 16  2  0
 16 11  1  0
 14 17  1  0
 18 17  1  1
 18 19  1  0
 19 20  1  0
 19 21  2  0
 20 22  1  0
 18 23  1  0
 23 24  1  0
 24 25  1  0
M  STY  2   1 SUP   2 SUP
M  SLB  2   1   1   2   2
M  SAL   1  2  26  27
M  SBL   1  1   2
M  SMT   1 OCH3
M  SBV   1   2    0.7144    0.4125
M  SAL   2  2  28  29
M  SBL   2  1   4
M  SMT   2 OCH3
M  SBV   2   4   -0.7144   -0.4125
M  END
$$$$
