
     RDKit          3D

 29 30  0  2  0  0  0  0  0  0999 V2000
   18.0310    8.2286   -7.2607 C   0  0  0  0  0  0  0  0  0  0  0  0
   19.1219    8.2920   -6.4314 C   0  0  0  0  0  0  0  0  0  0  0  0
   18.9865    8.0105   -5.0991 C   0  0  0  0  0  0  0  0  0  0  0  0
   17.7626    7.6505   -4.5146 C   0  0  0  0  0  0  0  0  0  0  0  0
   16.7058    7.6017   -5.3843 C   0  0  0  0  0  0  0  0  0  0  0  0
   16.8061    7.8816   -6.7454 C   0  0  0  0  0  0  0  0  0  0  0  0
   17.7097    7.3694   -3.0965 C   0  0  0  0  0  0  0  0  0  0  0  0
   16.5385    7.2161   -2.2409 C   0  0  0  0  0  0  0  0  0  0  0  0
   18.8381    7.2298   -2.4760 O   0  0  0  0  0  0  0  0  0  0  0  0
   16.5406    7.8720   -1.0236 O   0  0  0  0  0  0  0  0  0  0  0  0
   15.4278    8.6474   -0.6725 C   0  0  0  0  0  0  0  0  0  0  0  0
   14.5365    8.2359    0.2687 C   0  0  0  0  0  0  0  0  0  0  0  0
   13.4543    9.0151    0.5941 C   0  0  0  0  0  0  0  0  0  0  0  0
   13.1990   10.2345    0.0089 C   0  0  0  0  0  0  0  0  0  0  0  0
   14.1045   10.6502   -0.9459 C   0  0  0  0  0  0  0  0  0  0  0  0
   15.2072    9.8744   -1.2891 C   0  0  0  0  0  0  0  0  0  0  0  0
   12.0425   11.0320    0.3826 C   0  0  0  0  0  0  0  0  0  0  0  0
   12.3164   12.2089    1.2781 C   0  0  1  0  0  0  0  0  0  0  0  0
   11.1127   12.9272    1.7254 C   0  0  0  0  0  0  0  0  0  0  0  0
   10.6127   14.0044    0.9685 N   0  0  0  0  0  0  0  0  0  0  0  0
   10.5211   12.5967    2.7722 O   0  0  0  0  0  0  0  0  0  0  0  0
    9.3308   14.6142    1.2762 C   0  0  0  0  0  0  0  0  0  0  0  0
   13.1808   11.9052    2.3196 O   0  0  0  0  0  0  0  0  0  0  0  0
   13.5178   12.9728    3.1074 C   0  0  0  0  0  0  0  0  0  0  0  0
   12.7006   12.8898    4.3807 C   0  0  0  0  0  0  0  0  0  0  0  0
   20.3883    8.6378   -6.8961 O   0  0  0  0  0  0  0  0  0  0  0  0
   21.3980    9.1606   -6.0839 C   0  0  0  0  0  0  0  0  0  0  0  0
   11.3529   14.4762   -0.0696 O   0  0  0  0  0  0  0  0  0  0  0  0
   11.4762   15.8608   -0.0312 C   0  0  0  0  0  0  0  0  0  0  0  0
 26 27  1  0
  2 26  1  0
 28 29  1  0
 20 28  1  0
  1  2  2  0
  2  3  1  0
  3  4  2  0
  4  5  1  0
  5  6  2  0
  6  1  1  0
  4  7  1  0
  7  8  1  0
  7  9  2  0
  8 10  1  0
 10 11  1  0
 11 12  2  0
 12 13  1  0
 13 14  2  0
 14 15  1  0
 15 16  2  0
 16 11  1  0
 14 17  1  0
 18 17  1  1
 18 19  1  0
 19 20  1  0
 19 21  2  0
 20 22  1  0
 18 23  1  0
 23 24  1  0
 24 25  1  0
M  STY  2   1 SUP   2 SUP
M  SLB  2   1   1   2   2
M  SAL   1  2  26  27
M  SBL   1  1   2
M  SMT   1 OCH3
M  SBV   1   2    0.7144    0.4125
M  SAL   2  2  28  29
M  SBL   2  1   4
M  SMT   2 OCH3
M  SBV   2   4   -0.7144   -0.4125
M  END
$$$$
