
     RDKit          3D

 29 30  0  2  0  0  0  0  0  0999 V2000
   17.5099    9.7546  -10.9761 C   0  0  0  0  0  0  0  0  0  0  0  0
   16.2516    9.2289  -10.8262 C   0  0  0  0  0  0  0  0  0  0  0  0
   15.8706    8.6967   -9.6245 C   0  0  0  0  0  0  0  0  0  0  0  0
   16.7151    8.6558   -8.5045 C   0  0  0  0  0  0  0  0  0  0  0  0
   17.9588    9.1927   -8.7061 C   0  0  0  0  0  0  0  0  0  0  0  0
   18.3811    9.7427   -9.9145 C   0  0  0  0  0  0  0  0  0  0  0  0
   16.2302    8.0743   -7.2718 C   0  0  0  0  0  0  0  0  0  0  0  0
   16.9577    7.8292   -6.0317 C   0  0  0  0  0  0  0  0  0  0  0  0
   14.9868    7.7129   -7.2342 O   0  0  0  0  0  0  0  0  0  0  0  0
   16.3375    7.0623   -5.0627 O   0  0  0  0  0  0  0  0  0  0  0  0
   17.0759    6.6671   -3.9395 C   0  0  0  0  0  0  0  0  0  0  0  0
   16.5937    5.7598   -3.0485 C   0  0  0  0  0  0  0  0  0  0  0  0
   17.3378    5.3898   -1.9560 C   0  0  0  0  0  0  0  0  0  0  0  0
   18.5902    5.8951   -1.6897 C   0  0  0  0  0  0  0  0  0  0  0  0
   19.0776    6.8157   -2.5949 C   0  0  0  0  0  0  0  0  0  0  0  0
   18.3382    7.2030   -3.7079 C   0  0  0  0  0  0  0  0  0  0  0  0
   19.3486    5.4762   -0.5224 C   0  0  0  0  0  0  0  0  0  0  0  0
   18.8409    5.9705    0.8042 C   0  0  1  0  0  0  0  0  0  0  0  0
   19.5790    5.4566    1.9687 C   0  0  0  0  0  0  0  0  0  0  0  0
   18.9186    5.2803    3.2000 N   0  0  0  0  0  0  0  0  0  0  0  0
   20.7901    5.1714    1.8851 O   0  0  0  0  0  0  0  0  0  0  0  0
   19.5887    4.6748    4.3375 C   0  0  0  0  0  0  0  0  0  0  0  0
   18.6711    7.3469    0.8384 O   0  0  0  0  0  0  0  0  0  0  0  0
   18.9828    7.9277    2.0381 C   0  0  0  0  0  0  0  0  0  0  0  0
   20.3965    8.4649    1.9436 C   0  0  0  0  0  0  0  0  0  0  0  0
   15.3254    9.2129  -11.8659 O   0  0  0  0  0  0  0  0  0  0  0  0
   13.9511    9.3897  -11.6851 C   0  0  0  0  0  0  0  0  0  0  0  0
   17.6272    5.6888    3.3162 O   0  0  0  0  0  0  0  0  0  0  0  0
   17.5353    6.9755    3.8357 C   0  0  0  0  0  0  0  0  0  0  0  0
 26 27  1  0
  2 26  1  0
 28 29  1  0
 20 28  1  0
  1  2  2  0
  2  3  1  0
  3  4  2  0
  4  5  1  0
  5  6  2  0
  6  1  1  0
  4  7  1  0
  7  8  1  0
  7  9  2  0
  8 10  1  0
 10 11  1  0
 11 12  2  0
 12 13  1  0
 13 14  2  0
 14 15  1  0
 15 16  2  0
 16 11  1  0
 14 17  1  0
 18 17  1  6
 18 19  1  0
 19 20  1  0
 19 21  2  0
 20 22  1  0
 18 23  1  0
 23 24  1  0
 24 25  1  0
M  STY  2   1 SUP   2 SUP
M  SLB  2   1   1   2   2
M  SAL   1  2  26  27
M  SBL   1  1   2
M  SMT   1 OCH3
M  SBV   1   2    0.7144    0.4125
M  SAL   2  2  28  29
M  SBL   2  1   4
M  SMT   2 OCH3
M  SBV   2   4   -0.7144   -0.4125
M  END
$$$$
