
     RDKit          3D

 29 30  0  2  0  0  0  0  0  0999 V2000
   20.0470    6.6736    2.9687 C   0  0  0  0  0  0  0  0  0  0  0  0
   19.0891    7.6553    2.9964 C   0  0  0  0  0  0  0  0  0  0  0  0
   18.2344    7.8080    1.9387 C   0  0  0  0  0  0  0  0  0  0  0  0
   18.2813    6.9965    0.7948 C   0  0  0  0  0  0  0  0  0  0  0  0
   19.2542    6.0329    0.8167 C   0  0  0  0  0  0  0  0  0  0  0  0
   20.1412    5.8482    1.8751 C   0  0  0  0  0  0  0  0  0  0  0  0
   17.3385    7.2279   -0.2777 C   0  0  0  0  0  0  0  0  0  0  0  0
   17.5755    7.2209   -1.7168 C   0  0  0  0  0  0  0  0  0  0  0  0
   16.1113    7.4773    0.0536 O   0  0  0  0  0  0  0  0  0  0  0  0
   16.6801    7.9032   -2.5197 O   0  0  0  0  0  0  0  0  0  0  0  0
   16.9125    7.9516   -3.9005 C   0  0  0  0  0  0  0  0  0  0  0  0
   18.1184    8.3185   -4.4112 C   0  0  0  0  0  0  0  0  0  0  0  0
   18.3196    8.3576   -5.7685 C   0  0  0  0  0  0  0  0  0  0  0  0
   17.3443    8.0377   -6.6855 C   0  0  0  0  0  0  0  0  0  0  0  0
   16.1214    7.6658   -6.1652 C   0  0  0  0  0  0  0  0  0  0  0  0
   15.8985    7.6202   -4.7928 C   0  0  0  0  0  0  0  0  0  0  0  0
   17.5971    8.0891   -8.1162 C   0  0  0  0  0  0  0  0  0  0  0  0
   16.8254    9.1271   -8.8838 C   0  0  1  0  0  0  0  0  0  0  0  0
   16.9032   10.4841   -8.3205 C   0  0  0  0  0  0  0  0  0  0  0  0
   15.7395   11.1159   -7.8410 N   0  0  0  0  0  0  0  0  0  0  0  0
   17.9907   11.0913   -8.2591 O   0  0  0  0  0  0  0  0  0  0  0  0
   15.7118   12.5419   -7.5664 C   0  0  0  0  0  0  0  0  0  0  0  0
   17.0837    9.0937  -10.2463 O   0  0  0  0  0  0  0  0  0  0  0  0
   16.1998    9.8081  -11.0094 C   0  0  0  0  0  0  0  0  0  0  0  0
   14.9898    8.9327  -11.2651 C   0  0  0  0  0  0  0  0  0  0  0  0
   18.9456    8.5217    4.0771 O   0  0  0  0  0  0  0  0  0  0  0  0
   18.1546    9.6734    4.0499 C   0  0  0  0  0  0  0  0  0  0  0  0
   14.6241   10.3669   -7.6342 O   0  0  0  0  0  0  0  0  0  0  0  0
   14.0558   10.6160   -6.3897 C   0  0  0  0  0  0  0  0  0  0  0  0
 26 27  1  0
  2 26  1  0
 28 29  1  0
 20 28  1  0
  1  2  2  0
  2  3  1  0
  3  4  2  0
  4  5  1  0
  5  6  2  0
  6  1  1  0
  4  7  1  0
  7  8  1  0
  7  9  2  0
  8 10  1  0
 10 11  1  0
 11 12  2  0
 12 13  1  0
 13 14  2  0
 14 15  1  0
 15 16  2  0
 16 11  1  0
 14 17  1  0
 18 17  1  1
 18 19  1  0
 19 20  1  0
 19 21  2  0
 20 22  1  0
 18 23  1  0
 23 24  1  0
 24 25  1  0
M  STY  2   1 SUP   2 SUP
M  SLB  2   1   1   2   2
M  SAL   1  2  26  27
M  SBL   1  1   2
M  SMT   1 OCH3
M  SBV   1   2    0.7144    0.4125
M  SAL   2  2  28  29
M  SBL   2  1   4
M  SMT   2 OCH3
M  SBV   2   4   -0.7144   -0.4125
M  END
$$$$
