
     RDKit          3D

 29 30  0  2  0  0  0  0  0  0999 V2000
   21.6954    5.0944    2.4141 C   0  0  0  0  0  0  0  0  0  0  0  0
   20.6932    5.8536    2.9627 C   0  0  0  0  0  0  0  0  0  0  0  0
   19.6905    6.3406    2.1690 C   0  0  0  0  0  0  0  0  0  0  0  0
   19.6252    6.1024    0.7876 C   0  0  0  0  0  0  0  0  0  0  0  0
   20.6482    5.3401    0.2897 C   0  0  0  0  0  0  0  0  0  0  0  0
   21.6848    4.8278    1.0669 C   0  0  0  0  0  0  0  0  0  0  0  0
   18.5285    6.6562    0.0237 C   0  0  0  0  0  0  0  0  0  0  0  0
   18.3456    6.6789   -1.4231 C   0  0  0  0  0  0  0  0  0  0  0  0
   17.5647    7.2132    0.6861 O   0  0  0  0  0  0  0  0  0  0  0  0
   17.1824    7.2411   -1.9158 O   0  0  0  0  0  0  0  0  0  0  0  0
   17.0026    7.3137   -3.3034 C   0  0  0  0  0  0  0  0  0  0  0  0
   15.8520    6.9004   -3.8990 C   0  0  0  0  0  0  0  0  0  0  0  0
   15.7016    6.9825   -5.2609 C   0  0  0  0  0  0  0  0  0  0  0  0
   16.6759    7.4748   -6.0994 C   0  0  0  0  0  0  0  0  0  0  0  0
   17.8427    7.8935   -5.4931 C   0  0  0  0  0  0  0  0  0  0  0  0
   18.0135    7.8182   -4.1145 C   0  0  0  0  0  0  0  0  0  0  0  0
   16.4778    7.5478   -7.5377 C   0  0  0  0  0  0  0  0  0  0  0  0
   15.8303    8.8051   -8.0496 C   0  0  1  0  0  0  0  0  0  0  0  0
   15.2501    8.6866   -9.3966 C   0  0  0  0  0  0  0  0  0  0  0  0
   16.0579    8.8892  -10.5322 N   0  0  0  0  0  0  0  0  0  0  0  0
   14.0449    8.4073   -9.5530 O   0  0  0  0  0  0  0  0  0  0  0  0
   15.5491    8.6585  -11.8730 C   0  0  0  0  0  0  0  0  0  0  0  0
   14.9562    9.3734   -7.1345 O   0  0  0  0  0  0  0  0  0  0  0  0
   14.4076   10.5616   -7.5358 C   0  0  0  0  0  0  0  0  0  0  0  0
   15.4710   11.6335   -7.4084 C   0  0  0  0  0  0  0  0  0  0  0  0
   20.6507    6.1568    4.3211 O   0  0  0  0  0  0  0  0  0  0  0  0
   19.9963    7.2735    4.8480 C   0  0  0  0  0  0  0  0  0  0  0  0
   17.3391    9.3095  -10.3595 O   0  0  0  0  0  0  0  0  0  0  0  0
   17.5390   10.5870  -10.8712 C   0  0  0  0  0  0  0  0  0  0  0  0
 26 27  1  0
  2 26  1  0
 28 29  1  0
 20 28  1  0
  1  2  2  0
  2  3  1  0
  3  4  2  0
  4  5  1  0
  5  6  2  0
  6  1  1  0
  4  7  1  0
  7  8  1  0
  7  9  2  0
  8 10  1  0
 10 11  1  0
 11 12  2  0
 12 13  1  0
 13 14  2  0
 14 15  1  0
 15 16  2  0
 16 11  1  0
 14 17  1  0
 18 17  1  1
 18 19  1  0
 19 20  1  0
 19 21  2  0
 20 22  1  0
 18 23  1  0
 23 24  1  0
 24 25  1  0
M  STY  2   1 SUP   2 SUP
M  SLB  2   1   1   2   2
M  SAL   1  2  26  27
M  SBL   1  1   2
M  SMT   1 OCH3
M  SBV   1   2    0.7144    0.4125
M  SAL   2  2  28  29
M  SBL   2  1   4
M  SMT   2 OCH3
M  SBV   2   4   -0.7144   -0.4125
M  END
$$$$
