
     RDKit          3D

 29 30  0  2  0  0  0  0  0  0999 V2000
   21.9892    5.6635    0.2636 C   0  0  0  0  0  0  0  0  0  0  0  0
   21.0054    4.7074    0.2654 C   0  0  0  0  0  0  0  0  0  0  0  0
   19.7636    5.0018   -0.2284 C   0  0  0  0  0  0  0  0  0  0  0  0
   19.4276    6.2599   -0.7515 C   0  0  0  0  0  0  0  0  0  0  0  0
   20.4437    7.1780   -0.7303 C   0  0  0  0  0  0  0  0  0  0  0  0
   21.7192    6.9140   -0.2358 C   0  0  0  0  0  0  0  0  0  0  0  0
   18.0895    6.4848   -1.2531 C   0  0  0  0  0  0  0  0  0  0  0  0
   17.5596    7.6556   -1.9428 C   0  0  0  0  0  0  0  0  0  0  0  0
   17.2236    5.5368   -1.0815 O   0  0  0  0  0  0  0  0  0  0  0  0
   16.2272    7.6366   -2.3119 O   0  0  0  0  0  0  0  0  0  0  0  0
   15.6820    8.7689   -2.9313 C   0  0  0  0  0  0  0  0  0  0  0  0
   14.6820    8.6720   -3.8479 C   0  0  0  0  0  0  0  0  0  0  0  0
   14.1655    9.7975   -4.4401 C   0  0  0  0  0  0  0  0  0  0  0  0
   14.6087   11.0697   -4.1579 C   0  0  0  0  0  0  0  0  0  0  0  0
   15.6235   11.1658   -3.2277 C   0  0  0  0  0  0  0  0  0  0  0  0
   16.1596   10.0367   -2.6170 C   0  0  0  0  0  0  0  0  0  0  0  0
   14.0341   12.2379   -4.8049 C   0  0  0  0  0  0  0  0  0  0  0  0
   12.8572   12.8635   -4.1082 C   0  0  1  0  0  0  0  0  0  0  0  0
   13.1901   13.5581   -2.8545 C   0  0  0  0  0  0  0  0  0  0  0  0
   12.8228   12.9943   -1.6174 N   0  0  0  0  0  0  0  0  0  0  0  0
   13.7973   14.6473   -2.8670 O   0  0  0  0  0  0  0  0  0  0  0  0
   13.3568   13.5032   -0.3662 C   0  0  0  0  0  0  0  0  0  0  0  0
   12.0724   13.6304   -4.9570 O   0  0  0  0  0  0  0  0  0  0  0  0
   10.8463   13.9653   -4.4487 C   0  0  0  0  0  0  0  0  0  0  0  0
   10.8776   15.4358   -4.0846 C   0  0  0  0  0  0  0  0  0  0  0  0
   21.2199    3.4228    0.7584 O   0  0  0  0  0  0  0  0  0  0  0  0
   22.4233    3.0006    1.3294 C   0  0  0  0  0  0  0  0  0  0  0  0
   11.9497   11.9524   -1.6046 O   0  0  0  0  0  0  0  0  0  0  0  0
   12.2836   10.9846   -2.5457 C   0  0  0  0  0  0  0  0  0  0  0  0
 26 27  1  0
  2 26  1  0
 28 29  1  0
 20 28  1  0
  1  2  2  0
  2  3  1  0
  3  4  2  0
  4  5  1  0
  5  6  2  0
  6  1  1  0
  4  7  1  0
  7  8  1  0
  7  9  2  0
  8 10  1  0
 10 11  1  0
 11 12  2  0
 12 13  1  0
 13 14  2  0
 14 15  1  0
 15 16  2  0
 16 11  1  0
 14 17  1  0
 18 17  1  6
 18 19  1  0
 19 20  1  0
 19 21  2  0
 20 22  1  0
 18 23  1  0
 23 24  1  0
 24 25  1  0
M  STY  2   1 SUP   2 SUP
M  SLB  2   1   1   2   2
M  SAL   1  2  26  27
M  SBL   1  1   2
M  SMT   1 OCH3
M  SBV   1   2    0.7144    0.4125
M  SAL   2  2  28  29
M  SBL   2  1   4
M  SMT   2 OCH3
M  SBV   2   4   -0.7144   -0.4125
M  END
$$$$
