
     RDKit          3D

 40 43  0  0  0  0  0  0  0  0999 V2000
  -24.1581  -37.4321   -5.4640 C   0  0  0  0  0  0  0  0  0  0  0  0
  -22.8974  -38.0210   -5.3033 O   0  0  0  0  0  0  0  0  0  0  0  0
  -21.9880  -38.0043   -6.3727 C   0  0  0  0  0  0  0  0  0  0  0  0
  -21.0104  -37.0440   -6.3168 C   0  0  0  0  0  0  0  0  0  0  0  0
  -20.1285  -37.0338   -7.3660 C   0  0  0  0  0  0  0  0  0  0  0  0
  -20.1796  -37.9302   -8.4573 C   0  0  0  0  0  0  0  0  0  0  0  0
  -18.9982  -37.6492   -9.3506 C   0  0  0  0  0  0  0  0  0  0  0  0
  -18.1066  -38.8566   -9.6153 C   0  0  2  0  0  0  0  0  0  0  0  0
  -18.7097  -39.9493   -8.8954 N   0  0  0  0  0  0  0  0  0  0  0  0
  -19.0812  -41.2793   -8.9915 C   0  0  0  0  0  0  0  0  0  0  0  0
  -19.3368  -41.7189  -10.2434 O   0  0  0  0  0  0  0  0  0  0  0  0
  -19.2928  -42.4173   -8.0396 C   0  0  0  0  0  0  0  0  0  0  0  0
  -18.6813  -43.6037   -8.5116 C   0  0  0  0  0  0  0  0  0  0  0  0
  -18.7987  -44.8245   -7.8761 C   0  0  0  0  0  0  0  0  0  0  0  0
  -18.0128  -46.2570   -8.5074 Cl  0  0  0  0  0  0  0  0  0  0  0  0
  -19.5320  -44.8129   -6.7831 N   0  0  0  0  0  0  0  0  0  0  0  0
  -20.1642  -43.6945   -6.2546 C   0  0  0  0  0  0  0  0  0  0  0  0
  -20.0462  -42.4887   -6.8763 C   0  0  0  0  0  0  0  0  0  0  0  0
  -20.9044  -44.1151   -5.0949 N   0  0  0  0  0  0  0  0  0  0  0  0
  -22.3028  -43.8712   -4.7787 C   0  0  0  0  0  0  0  0  0  0  0  0
  -23.0534  -43.2878   -5.9693 C   0  0  0  0  0  0  0  0  0  0  0  0
  -23.2850  -41.8112   -5.8916 C   0  0  0  0  0  0  0  0  0  0  0  0
  -23.3390  -41.1522   -7.2531 C   0  0  0  0  0  0  0  0  0  0  0  0
  -23.1422  -39.7863   -7.2541 O   0  0  0  0  0  0  0  0  0  0  0  0
  -22.0683  -38.9184   -7.4518 C   0  0  0  0  0  0  0  0  0  0  0  0
  -21.1623  -38.8763   -8.4987 C   0  0  0  0  0  0  0  0  0  0  0  0
  -16.6881  -38.5895   -9.1682 C   0  0  2  0  0  0  0  0  0  0  0  0
  -16.2998  -37.3551   -9.8529 O   0  0  0  0  0  0  0  0  0  0  0  0
  -15.6300  -39.5095   -9.6200 C   0  0  0  0  0  0  0  0  0  0  0  0
  -15.1148  -39.4633  -10.9204 N   0  0  0  0  0  0  0  0  0  0  0  0
  -14.7542  -38.1733  -11.4487 C   0  0  0  0  0  0  0  0  0  0  0  0
  -13.3146  -37.9128  -11.4363 C   0  0  0  0  0  0  0  0  0  0  0  0
  -12.4131  -38.8150  -10.9265 C   0  0  0  0  0  0  0  0  0  0  0  0
  -11.0404  -38.5414  -10.9146 C   0  0  0  0  0  0  0  0  0  0  0  0
  -10.6095  -37.3356  -11.4303 C   0  0  0  0  0  0  0  0  0  0  0  0
  -11.4959  -36.4159  -11.9469 C   0  0  0  0  0  0  0  0  0  0  0  0
  -12.8380  -36.7269  -11.9385 C   0  0  0  0  0  0  0  0  0  0  0  0
  -10.0295  -39.4895  -10.3809 C   0  0  0  0  0  0  0  0  0  0  0  0
  -10.2645  -39.7319   -8.8835 C   0  0  0  0  0  0  0  0  0  0  0  0
   -8.6385  -38.8526  -10.4743 C   0  0  0  0  0  0  0  0  0  0  0  0
  1  2  1  0
  2  3  1  0
  3  4  2  0
  4  5  1  0
  5  6  2  0
  6  7  1  0
  8  7  1  1
  8  9  1  0
  9 10  1  0
 10 11  2  0
 10 12  1  0
 12 13  2  0
 13 14  1  0
 14 15  1  0
 14 16  2  0
 16 17  1  0
 17 18  2  0
 17 19  1  0
 19 20  1  0
 20 21  1  0
 21 22  1  0
 22 23  1  0
 23 24  1  0
 24 25  1  0
 25 26  2  0
  8 27  1  0
 27 28  1  6
 27 29  1  0
 29 30  1  0
 30 31  1  0
 31 32  1  0
 32 33  2  0
 33 34  1  0
 34 35  2  0
 35 36  1  0
 36 37  2  0
 34 38  1  0
 38 39  1  0
 38 40  1  0
 18 12  1  0
 25  3  1  0
 26  6  1  0
 37 32  1  0
M  END
$$$$
