
     RDKit          3D

 40 43  0  0  0  0  0  0  0  0999 V2000
  -12.9592  -36.1360  -13.8935 C   0  0  0  0  0  0  0  0  0  0  0  0
  -13.8946  -37.0801  -13.4511 O   0  0  0  0  0  0  0  0  0  0  0  0
  -14.0722  -37.2803  -12.0729 C   0  0  0  0  0  0  0  0  0  0  0  0
  -14.9428  -36.4249  -11.4474 C   0  0  0  0  0  0  0  0  0  0  0  0
  -15.1081  -36.6264  -10.1018 C   0  0  0  0  0  0  0  0  0  0  0  0
  -14.4490  -37.6332   -9.3610 C   0  0  0  0  0  0  0  0  0  0  0  0
  -14.9564  -37.5797   -7.9424 C   0  0  0  0  0  0  0  0  0  0  0  0
  -15.5311  -38.8943   -7.4283 C   0  0  2  0  0  0  0  0  0  0  0  0
  -15.3950  -39.8290   -8.5164 N   0  0  0  0  0  0  0  0  0  0  0  0
  -15.0015  -41.1162   -8.8394 C   0  0  0  0  0  0  0  0  0  0  0  0
  -14.0936  -41.6694   -8.0054 O   0  0  0  0  0  0  0  0  0  0  0  0
  -15.3188  -42.1086   -9.9165 C   0  0  0  0  0  0  0  0  0  0  0  0
  -15.5462  -43.3980   -9.3777 C   0  0  0  0  0  0  0  0  0  0  0  0
  -15.7677  -44.5185  -10.1545 C   0  0  0  0  0  0  0  0  0  0  0  0
  -16.0486  -46.0872   -9.4275 Cl  0  0  0  0  0  0  0  0  0  0  0  0
  -15.7511  -44.3056  -11.4533 N   0  0  0  0  0  0  0  0  0  0  0  0
  -15.5357  -43.0748  -12.0604 C   0  0  0  0  0  0  0  0  0  0  0  0
  -15.3219  -41.9675  -11.2971 C   0  0  0  0  0  0  0  0  0  0  0  0
  -15.5401  -43.2805  -13.4842 N   0  0  0  0  0  0  0  0  0  0  0  0
  -14.5475  -42.8601  -14.4606 C   0  0  0  0  0  0  0  0  0  0  0  0
  -13.2817  -42.3449  -13.7870 C   0  0  0  0  0  0  0  0  0  0  0  0
  -13.1635  -40.8534  -13.7502 C   0  0  0  0  0  0  0  0  0  0  0  0
  -12.3893  -40.3545  -12.5493 C   0  0  0  0  0  0  0  0  0  0  0  0
  -12.5842  -39.0252  -12.2341 O   0  0  0  0  0  0  0  0  0  0  0  0
  -13.3948  -38.3003  -11.3605 C   0  0  0  0  0  0  0  0  0  0  0  0
  -13.5823  -38.4724   -9.9990 C   0  0  0  0  0  0  0  0  0  0  0  0
  -16.9690  -38.7235   -6.9964 C   0  0  2  0  0  0  0  0  0  0  0  0
  -16.9887  -37.4801   -6.2237 O   0  0  0  0  0  0  0  0  0  0  0  0
  -17.5202  -39.6753   -6.0164 C   0  0  0  0  0  0  0  0  0  0  0  0
  -18.5283  -40.5851   -6.3546 N   0  0  0  0  0  0  0  0  0  0  0  0
  -19.3680  -41.0745   -5.2923 C   0  0  0  0  0  0  0  0  0  0  0  0
  -20.7696  -40.6741   -5.4168 C   0  0  0  0  0  0  0  0  0  0  0  0
  -21.2971  -40.2185   -6.6003 C   0  0  0  0  0  0  0  0  0  0  0  0
  -22.6386  -39.8303   -6.6952 C   0  0  0  0  0  0  0  0  0  0  0  0
  -23.4256  -39.9158   -5.5644 C   0  0  0  0  0  0  0  0  0  0  0  0
  -22.9176  -40.3699   -4.3667 C   0  0  0  0  0  0  0  0  0  0  0  0
  -21.5919  -40.7416   -4.3191 C   0  0  0  0  0  0  0  0  0  0  0  0
  -23.2531  -39.3393   -7.9549 C   0  0  0  0  0  0  0  0  0  0  0  0
  -24.4491  -38.4284   -7.6448 C   0  0  0  0  0  0  0  0  0  0  0  0
  -23.8383  -40.5257   -8.7292 C   0  0  0  0  0  0  0  0  0  0  0  0
  1  2  1  0
  2  3  1  0
  3  4  2  0
  4  5  1  0
  5  6  2  0
  6  7  1  0
  8  7  1  6
  8  9  1  0
  9 10  1  0
 10 11  2  0
 10 12  1  0
 12 13  2  0
 13 14  1  0
 14 15  1  0
 14 16  2  0
 16 17  1  0
 17 18  2  0
 17 19  1  0
 19 20  1  0
 20 21  1  0
 21 22  1  0
 22 23  1  0
 23 24  1  0
 24 25  1  0
 25 26  2  0
  8 27  1  0
 27 28  1  1
 27 29  1  0
 29 30  1  0
 30 31  1  0
 31 32  1  0
 32 33  2  0
 33 34  1  0
 34 35  2  0
 35 36  1  0
 36 37  2  0
 34 38  1  0
 38 39  1  0
 38 40  1  0
 18 12  1  0
 25  3  1  0
 26  6  1  0
 37 32  1  0
M  END
$$$$
