
     RDKit          3D

 40 43  0  0  0  0  0  0  0  0999 V2000
  -24.4843  -39.0783   -4.6597 C   0  0  0  0  0  0  0  0  0  0  0  0
  -23.3237  -39.8575   -4.7486 O   0  0  0  0  0  0  0  0  0  0  0  0
  -22.3481  -39.5336   -5.7049 C   0  0  0  0  0  0  0  0  0  0  0  0
  -21.4702  -38.5393   -5.3564 C   0  0  0  0  0  0  0  0  0  0  0  0
  -20.5228  -38.2282   -6.2967 C   0  0  0  0  0  0  0  0  0  0  0  0
  -20.4150  -38.8591   -7.5567 C   0  0  0  0  0  0  0  0  0  0  0  0
  -19.2060  -38.2972   -8.2604 C   0  0  0  0  0  0  0  0  0  0  0  0
  -18.1901  -39.3441   -8.7015 C   0  0  2  0  0  0  0  0  0  0  0  0
  -18.7372  -40.6124   -8.2917 N   0  0  0  0  0  0  0  0  0  0  0  0
  -18.9761  -41.9113   -8.7064 C   0  0  0  0  0  0  0  0  0  0  0  0
  -19.1028  -42.0776  -10.0413 O   0  0  0  0  0  0  0  0  0  0  0  0
  -19.1463  -43.2460   -8.0464 C   0  0  0  0  0  0  0  0  0  0  0  0
  -18.3961  -44.2472   -8.7091 C   0  0  0  0  0  0  0  0  0  0  0  0
  -18.4433  -45.5845   -8.3664 C   0  0  0  0  0  0  0  0  0  0  0  0
  -17.4860  -46.7762   -9.2220 Cl  0  0  0  0  0  0  0  0  0  0  0  0
  -19.2481  -45.8730   -7.3657 N   0  0  0  0  0  0  0  0  0  0  0  0
  -20.0163  -44.9520   -6.6647 C   0  0  0  0  0  0  0  0  0  0  0  0
  -19.9683  -43.6323   -6.9971 C   0  0  0  0  0  0  0  0  0  0  0  0
  -20.7925  -45.6759   -5.6935 N   0  0  0  0  0  0  0  0  0  0  0  0
  -22.2260  -45.6150   -5.4559 C   0  0  0  0  0  0  0  0  0  0  0  0
  -22.9436  -44.8382   -6.5528 C   0  0  0  0  0  0  0  0  0  0  0  0
  -23.3161  -43.4382   -6.1772 C   0  0  0  0  0  0  0  0  0  0  0  0
  -23.3370  -42.4973   -7.3625 C   0  0  0  0  0  0  0  0  0  0  0  0
  -23.2684  -41.1550   -7.0498 O   0  0  0  0  0  0  0  0  0  0  0  0
  -22.2686  -40.1865   -6.9595 C   0  0  0  0  0  0  0  0  0  0  0  0
  -21.3004  -39.8431   -7.8886 C   0  0  0  0  0  0  0  0  0  0  0  0
  -16.8367  -39.0778   -8.0844 C   0  0  2  0  0  0  0  0  0  0  0  0
  -16.9877  -37.8086   -7.3702 O   0  0  0  0  0  0  0  0  0  0  0  0
  -15.7106  -38.7662   -8.9815 C   0  0  0  0  0  0  0  0  0  0  0  0
  -14.7737  -39.7355   -9.3571 N   0  0  0  0  0  0  0  0  0  0  0  0
  -14.6877  -40.0730  -10.7542 C   0  0  0  0  0  0  0  0  0  0  0  0
  -13.3539  -39.8848  -11.3251 C   0  0  0  0  0  0  0  0  0  0  0  0
  -12.6862  -38.6873  -11.2431 C   0  0  0  0  0  0  0  0  0  0  0  0
  -11.4146  -38.5254  -11.8055 C   0  0  0  0  0  0  0  0  0  0  0  0
  -10.8423  -39.6039  -12.4494 C   0  0  0  0  0  0  0  0  0  0  0  0
  -11.4938  -40.8145  -12.5436 C   0  0  0  0  0  0  0  0  0  0  0  0
  -12.7435  -40.9290  -11.9754 C   0  0  0  0  0  0  0  0  0  0  0  0
  -10.6531  -37.2524  -11.7345 C   0  0  0  0  0  0  0  0  0  0  0  0
   -9.5216  -37.2496  -12.7718 C   0  0  0  0  0  0  0  0  0  0  0  0
   -9.9545  -37.1551  -10.3736 C   0  0  0  0  0  0  0  0  0  0  0  0
  1  2  1  0
  2  3  1  0
  3  4  2  0
  4  5  1  0
  5  6  2  0
  6  7  1  0
  8  7  1  1
  8  9  1  0
  9 10  1  0
 10 11  2  0
 10 12  1  0
 12 13  2  0
 13 14  1  0
 14 15  1  0
 14 16  2  0
 16 17  1  0
 17 18  2  0
 17 19  1  0
 19 20  1  0
 20 21  1  0
 21 22  1  0
 22 23  1  0
 23 24  1  0
 24 25  1  0
 25 26  2  0
  8 27  1  0
 27 28  1  1
 27 29  1  0
 29 30  1  0
 30 31  1  0
 31 32  1  0
 32 33  2  0
 33 34  1  0
 34 35  2  0
 35 36  1  0
 36 37  2  0
 34 38  1  0
 38 39  1  0
 38 40  1  0
 18 12  1  0
 25  3  1  0
 26  6  1  0
 37 32  1  0
M  END
$$$$
