
     RDKit          3D

 40 43  0  0  0  0  0  0  0  0999 V2000
  -23.2527  -40.6014   -3.9071 C   0  0  0  0  0  0  0  0  0  0  0  0
  -23.4735  -40.4227   -5.2787 O   0  0  0  0  0  0  0  0  0  0  0  0
  -22.4416  -39.9114   -6.0817 C   0  0  0  0  0  0  0  0  0  0  0  0
  -21.6939  -38.9022   -5.5309 C   0  0  0  0  0  0  0  0  0  0  0  0
  -20.6903  -38.4077   -6.3227 C   0  0  0  0  0  0  0  0  0  0  0  0
  -20.4039  -38.8711   -7.6266 C   0  0  0  0  0  0  0  0  0  0  0  0
  -19.1865  -38.1370   -8.1283 C   0  0  0  0  0  0  0  0  0  0  0  0
  -18.0432  -39.0417   -8.5723 C   0  0  2  0  0  0  0  0  0  0  0  0
  -18.5130  -40.3886   -8.3692 N   0  0  0  0  0  0  0  0  0  0  0  0
  -18.5937  -41.6421   -8.9507 C   0  0  0  0  0  0  0  0  0  0  0  0
  -18.5737  -41.6547  -10.3018 O   0  0  0  0  0  0  0  0  0  0  0  0
  -18.7085  -43.0560   -8.4674 C   0  0  0  0  0  0  0  0  0  0  0  0
  -17.8109  -43.9090   -9.1538 C   0  0  0  0  0  0  0  0  0  0  0  0
  -17.7724  -45.2776   -8.9709 C   0  0  0  0  0  0  0  0  0  0  0  0
  -16.6338  -46.2799   -9.8470 Cl  0  0  0  0  0  0  0  0  0  0  0  0
  -18.6427  -45.7461   -8.1016 N   0  0  0  0  0  0  0  0  0  0  0  0
  -19.5547  -44.9785   -7.3883 C   0  0  0  0  0  0  0  0  0  0  0  0
  -19.5917  -43.6285   -7.5630 C   0  0  0  0  0  0  0  0  0  0  0  0
  -20.3549  -45.8722   -6.5941 N   0  0  0  0  0  0  0  0  0  0  0  0
  -21.8045  -45.9507   -6.5071 C   0  0  0  0  0  0  0  0  0  0  0  0
  -22.4773  -45.1042   -7.5804 C   0  0  0  0  0  0  0  0  0  0  0  0
  -23.0077  -43.7927   -7.0920 C   0  0  0  0  0  0  0  0  0  0  0  0
  -22.9959  -42.7196   -8.1592 C   0  0  0  0  0  0  0  0  0  0  0  0
  -23.0778  -41.4238   -7.6919 O   0  0  0  0  0  0  0  0  0  0  0  0
  -22.1818  -40.3995   -7.3859 C   0  0  0  0  0  0  0  0  0  0  0  0
  -21.1615  -39.8728   -8.1606 C   0  0  0  0  0  0  0  0  0  0  0  0
  -16.7859  -38.7490   -7.7869 C   0  0  2  0  0  0  0  0  0  0  0  0
  -16.5482  -37.3160   -7.9700 O   0  0  0  0  0  0  0  0  0  0  0  0
  -15.5140  -39.3119   -8.2721 C   0  0  0  0  0  0  0  0  0  0  0  0
  -14.3027  -39.0821   -7.6100 N   0  0  0  0  0  0  0  0  0  0  0  0
  -13.3490  -38.2125   -8.2484 C   0  0  0  0  0  0  0  0  0  0  0  0
  -13.4956  -38.1431   -9.7024 C   0  0  0  0  0  0  0  0  0  0  0  0
  -12.9771  -39.1040  -10.5357 C   0  0  0  0  0  0  0  0  0  0  0  0
  -13.1195  -39.0130  -11.9253 C   0  0  0  0  0  0  0  0  0  0  0  0
  -13.7974  -37.9279  -12.4434 C   0  0  0  0  0  0  0  0  0  0  0  0
  -14.3258  -36.9523  -11.6264 C   0  0  0  0  0  0  0  0  0  0  0  0
  -14.1622  -37.0824  -10.2647 C   0  0  0  0  0  0  0  0  0  0  0  0
  -12.5825  -40.0313  -12.8635 C   0  0  0  0  0  0  0  0  0  0  0  0
  -11.2496  -39.5570  -13.4589 C   0  0  0  0  0  0  0  0  0  0  0  0
  -13.5326  -40.1705  -14.0582 C   0  0  0  0  0  0  0  0  0  0  0  0
  1  2  1  0
  2  3  1  0
  3  4  2  0
  4  5  1  0
  5  6  2  0
  6  7  1  0
  8  7  1  1
  8  9  1  0
  9 10  1  0
 10 11  2  0
 10 12  1  0
 12 13  2  0
 13 14  1  0
 14 15  1  0
 14 16  2  0
 16 17  1  0
 17 18  2  0
 17 19  1  0
 19 20  1  0
 20 21  1  0
 21 22  1  0
 22 23  1  0
 23 24  1  0
 24 25  1  0
 25 26  2  0
  8 27  1  0
 27 28  1  6
 27 29  1  0
 29 30  1  0
 30 31  1  0
 31 32  1  0
 32 33  2  0
 33 34  1  0
 34 35  2  0
 35 36  1  0
 36 37  2  0
 34 38  1  0
 38 39  1  0
 38 40  1  0
 18 12  1  0
 25  3  1  0
 26  6  1  0
 37 32  1  0
M  END
$$$$
