
     RDKit          3D

 40 43  0  0  0  0  0  0  0  0999 V2000
  -23.4179  -38.9753   -4.0501 C   0  0  0  0  0  0  0  0  0  0  0  0
  -23.0609  -39.7562   -5.1568 O   0  0  0  0  0  0  0  0  0  0  0  0
  -22.0089  -39.3358   -5.9859 C   0  0  0  0  0  0  0  0  0  0  0  0
  -21.1355  -38.4311   -5.4386 C   0  0  0  0  0  0  0  0  0  0  0  0
  -20.1131  -38.0246   -6.2559 C   0  0  0  0  0  0  0  0  0  0  0  0
  -19.9267  -38.4764   -7.5818 C   0  0  0  0  0  0  0  0  0  0  0  0
  -18.6551  -37.8640   -8.1115 C   0  0  0  0  0  0  0  0  0  0  0  0
  -17.6347  -38.8735   -8.6238 C   0  0  2  0  0  0  0  0  0  0  0  0
  -18.2418  -40.1669   -8.4379 N   0  0  0  0  0  0  0  0  0  0  0  0
  -18.4805  -41.3859   -9.0487 C   0  0  0  0  0  0  0  0  0  0  0  0
  -18.5110  -41.3595  -10.3993 O   0  0  0  0  0  0  0  0  0  0  0  0
  -18.7321  -42.7931   -8.5987 C   0  0  0  0  0  0  0  0  0  0  0  0
  -17.9591  -43.7172   -9.3421 C   0  0  0  0  0  0  0  0  0  0  0  0
  -18.0643  -45.0869   -9.1970 C   0  0  0  0  0  0  0  0  0  0  0  0
  -17.0750  -46.1796  -10.1433 Cl  0  0  0  0  0  0  0  0  0  0  0  0
  -18.9486  -45.4843   -8.3068 N   0  0  0  0  0  0  0  0  0  0  0  0
  -19.7445  -44.6443   -7.5382 C   0  0  0  0  0  0  0  0  0  0  0  0
  -19.6395  -43.2936   -7.6756 C   0  0  0  0  0  0  0  0  0  0  0  0
  -20.6086  -45.4696   -6.7370 N   0  0  0  0  0  0  0  0  0  0  0  0
  -22.0540  -45.3928   -6.5951 C   0  0  0  0  0  0  0  0  0  0  0  0
  -22.6683  -44.4459   -7.6185 C   0  0  0  0  0  0  0  0  0  0  0  0
  -23.0336  -43.1001   -7.0752 C   0  0  0  0  0  0  0  0  0  0  0  0
  -22.9428  -42.0025   -8.1134 C   0  0  0  0  0  0  0  0  0  0  0  0
  -22.8651  -40.7203   -7.6091 O   0  0  0  0  0  0  0  0  0  0  0  0
  -21.8516  -39.8092   -7.3117 C   0  0  0  0  0  0  0  0  0  0  0  0
  -20.8085  -39.3731   -8.1119 C   0  0  0  0  0  0  0  0  0  0  0  0
  -16.3253  -38.7432   -7.8810 C   0  0  2  0  0  0  0  0  0  0  0  0
  -16.2936  -37.3585   -7.4066 O   0  0  0  0  0  0  0  0  0  0  0  0
  -15.0746  -38.8061   -8.6567 C   0  0  0  0  0  0  0  0  0  0  0  0
  -13.8901  -39.3138   -8.1111 N   0  0  0  0  0  0  0  0  0  0  0  0
  -13.5172  -40.6591   -8.4637 C   0  0  0  0  0  0  0  0  0  0  0  0
  -13.5202  -40.9132   -9.9045 C   0  0  0  0  0  0  0  0  0  0  0  0
  -13.0995  -42.1074  -10.4368 C   0  0  0  0  0  0  0  0  0  0  0  0
  -13.1005  -42.3261  -11.8194 C   0  0  0  0  0  0  0  0  0  0  0  0
  -13.5365  -41.3072  -12.6422 C   0  0  0  0  0  0  0  0  0  0  0  0
  -13.9630  -40.1012  -12.1301 C   0  0  0  0  0  0  0  0  0  0  0  0
  -13.9454  -39.9297  -10.7633 C   0  0  0  0  0  0  0  0  0  0  0  0
  -12.6620  -43.6029  -12.4383 C   0  0  0  0  0  0  0  0  0  0  0  0
  -12.0717  -43.3447  -13.8316 C   0  0  0  0  0  0  0  0  0  0  0  0
  -13.8843  -44.4967  -12.6760 C   0  0  0  0  0  0  0  0  0  0  0  0
  1  2  1  0
  2  3  1  0
  3  4  2  0
  4  5  1  0
  5  6  2  0
  6  7  1  0
  8  7  1  1
  8  9  1  0
  9 10  1  0
 10 11  2  0
 10 12  1  0
 12 13  2  0
 13 14  1  0
 14 15  1  0
 14 16  2  0
 16 17  1  0
 17 18  2  0
 17 19  1  0
 19 20  1  0
 20 21  1  0
 21 22  1  0
 22 23  1  0
 23 24  1  0
 24 25  1  0
 25 26  2  0
  8 27  1  0
 27 28  1  6
 27 29  1  0
 29 30  1  0
 30 31  1  0
 31 32  1  0
 32 33  2  0
 33 34  1  0
 34 35  2  0
 35 36  1  0
 36 37  2  0
 34 38  1  0
 38 39  1  0
 38 40  1  0
 18 12  1  0
 25  3  1  0
 26  6  1  0
 37 32  1  0
M  END
$$$$
