
     RDKit          3D

 40 43  0  0  0  0  0  0  0  0999 V2000
  -22.8691  -39.5761   -3.9368 C   0  0  0  0  0  0  0  0  0  0  0  0
  -23.3493  -39.3549   -5.2340 O   0  0  0  0  0  0  0  0  0  0  0  0
  -22.4447  -39.0294   -6.2571 C   0  0  0  0  0  0  0  0  0  0  0  0
  -21.7033  -37.8916   -6.0659 C   0  0  0  0  0  0  0  0  0  0  0  0
  -20.8246  -37.5805   -7.0707 C   0  0  0  0  0  0  0  0  0  0  0  0
  -20.6559  -38.3469   -8.2459 C   0  0  0  0  0  0  0  0  0  0  0  0
  -19.5477  -37.7245   -9.0565 C   0  0  0  0  0  0  0  0  0  0  0  0
  -18.4076  -38.6755   -9.4007 C   0  0  2  0  0  0  0  0  0  0  0  0
  -18.7700  -39.9424   -8.8178 N   0  0  0  0  0  0  0  0  0  0  0  0
  -18.8383  -41.3036   -9.0598 C   0  0  0  0  0  0  0  0  0  0  0  0
  -18.9663  -41.6539  -10.3586 O   0  0  0  0  0  0  0  0  0  0  0  0
  -18.8135  -42.5540   -8.2341 C   0  0  0  0  0  0  0  0  0  0  0  0
  -17.9471  -43.5235   -8.7942 C   0  0  0  0  0  0  0  0  0  0  0  0
  -17.8061  -44.8007   -8.2873 C   0  0  0  0  0  0  0  0  0  0  0  0
  -16.7123  -45.9546   -9.0225 Cl  0  0  0  0  0  0  0  0  0  0  0  0
  -18.5455  -45.0631   -7.2304 N   0  0  0  0  0  0  0  0  0  0  0  0
  -19.4182  -44.1700   -6.6218 C   0  0  0  0  0  0  0  0  0  0  0  0
  -19.5557  -42.9087   -7.1165 C   0  0  0  0  0  0  0  0  0  0  0  0
  -20.0707  -44.8604   -5.5415 N   0  0  0  0  0  0  0  0  0  0  0  0
  -21.4946  -44.9597   -5.2622 C   0  0  0  0  0  0  0  0  0  0  0  0
  -22.3313  -44.4307   -6.4204 C   0  0  0  0  0  0  0  0  0  0  0  0
  -22.8830  -43.0558   -6.2079 C   0  0  0  0  0  0  0  0  0  0  0  0
  -23.0535  -42.2847   -7.4990 C   0  0  0  0  0  0  0  0  0  0  0  0
  -23.1616  -40.9163   -7.3574 O   0  0  0  0  0  0  0  0  0  0  0  0
  -22.3009  -39.8206   -7.4233 C   0  0  0  0  0  0  0  0  0  0  0  0
  -21.4058  -39.4735   -8.4217 C   0  0  0  0  0  0  0  0  0  0  0  0
  -17.0915  -38.1563   -8.8699 C   0  0  2  0  0  0  0  0  0  0  0  0
  -17.0123  -36.7716   -9.3389 O   0  0  0  0  0  0  0  0  0  0  0  0
  -15.8468  -38.7155   -9.4249 C   0  0  0  0  0  0  0  0  0  0  0  0
  -14.6090  -38.5313   -8.7984 N   0  0  0  0  0  0  0  0  0  0  0  0
  -14.0114  -37.2235   -8.8754 C   0  0  0  0  0  0  0  0  0  0  0  0
  -13.6735  -36.8092  -10.2372 C   0  0  0  0  0  0  0  0  0  0  0  0
  -12.4574  -37.0959  -10.8077 C   0  0  0  0  0  0  0  0  0  0  0  0
  -12.1503  -36.6808  -12.1088 C   0  0  0  0  0  0  0  0  0  0  0  0
  -13.1038  -35.9713  -12.8109 C   0  0  0  0  0  0  0  0  0  0  0  0
  -14.3302  -35.6725  -12.2585 C   0  0  0  0  0  0  0  0  0  0  0  0
  -14.5898  -36.1011  -10.9752 C   0  0  0  0  0  0  0  0  0  0  0  0
  -10.8524  -36.9745  -12.7682 C   0  0  0  0  0  0  0  0  0  0  0  0
  -10.3956  -38.4013  -12.4337 C   0  0  0  0  0  0  0  0  0  0  0  0
   -9.7703  -36.0568  -12.1882 C   0  0  0  0  0  0  0  0  0  0  0  0
  1  2  1  0
  2  3  1  0
  3  4  2  0
  4  5  1  0
  5  6  2  0
  6  7  1  0
  8  7  1  1
  8  9  1  0
  9 10  1  0
 10 11  2  0
 10 12  1  0
 12 13  2  0
 13 14  1  0
 14 15  1  0
 14 16  2  0
 16 17  1  0
 17 18  2  0
 17 19  1  0
 19 20  1  0
 20 21  1  0
 21 22  1  0
 22 23  1  0
 23 24  1  0
 24 25  1  0
 25 26  2  0
  8 27  1  0
 27 28  1  6
 27 29  1  0
 29 30  1  0
 30 31  1  0
 31 32  1  0
 32 33  2  0
 33 34  1  0
 34 35  2  0
 35 36  1  0
 36 37  2  0
 34 38  1  0
 38 39  1  0
 38 40  1  0
 18 12  1  0
 25  3  1  0
 26  6  1  0
 37 32  1  0
M  END
$$$$
