
     RDKit          3D

 40 43  0  0  0  0  0  0  0  0999 V2000
  -23.3855  -38.6691   -3.5345 C   0  0  0  0  0  0  0  0  0  0  0  0
  -22.7925  -39.6908   -4.2870 O   0  0  0  0  0  0  0  0  0  0  0  0
  -21.8147  -39.3654   -5.2405 C   0  0  0  0  0  0  0  0  0  0  0  0
  -20.7963  -38.5558   -4.8064 C   0  0  0  0  0  0  0  0  0  0  0  0
  -19.8477  -38.2416   -5.7444 C   0  0  0  0  0  0  0  0  0  0  0  0
  -19.8712  -38.6946   -7.0828 C   0  0  0  0  0  0  0  0  0  0  0  0
  -18.6209  -38.2027   -7.7664 C   0  0  0  0  0  0  0  0  0  0  0  0
  -17.7751  -39.3007   -8.4001 C   0  0  2  0  0  0  0  0  0  0  0  0
  -18.4781  -40.5311   -8.1392 N   0  0  0  0  0  0  0  0  0  0  0  0
  -18.9083  -41.7143   -8.7144 C   0  0  0  0  0  0  0  0  0  0  0  0
  -19.1023  -41.6701  -10.0509 O   0  0  0  0  0  0  0  0  0  0  0  0
  -19.2387  -43.0953   -8.2352 C   0  0  0  0  0  0  0  0  0  0  0  0
  -18.6573  -44.0819   -9.0677 C   0  0  0  0  0  0  0  0  0  0  0  0
  -18.8772  -45.4363   -8.9093 C   0  0  0  0  0  0  0  0  0  0  0  0
  -18.1237  -46.6095   -9.9697 Cl  0  0  0  0  0  0  0  0  0  0  0  0
  -19.6796  -45.7559   -7.9161 N   0  0  0  0  0  0  0  0  0  0  0  0
  -20.2886  -44.8512   -7.0557 C   0  0  0  0  0  0  0  0  0  0  0  0
  -20.0700  -43.5156   -7.2065 C   0  0  0  0  0  0  0  0  0  0  0  0
  -21.1238  -45.5975   -6.1528 N   0  0  0  0  0  0  0  0  0  0  0  0
  -22.5262  -45.3823   -5.8331 C   0  0  0  0  0  0  0  0  0  0  0  0
  -23.1665  -44.3689   -6.7736 C   0  0  0  0  0  0  0  0  0  0  0  0
  -23.3288  -43.0001   -6.1906 C   0  0  0  0  0  0  0  0  0  0  0  0
  -23.2599  -41.9051   -7.2332 C   0  0  0  0  0  0  0  0  0  0  0  0
  -22.9957  -40.6422   -6.7438 O   0  0  0  0  0  0  0  0  0  0  0  0
  -21.8691  -39.8371   -6.5751 C   0  0  0  0  0  0  0  0  0  0  0  0
  -20.8950  -39.4955   -7.4987 C   0  0  0  0  0  0  0  0  0  0  0  0
  -16.3777  -39.3064   -7.8252 C   0  0  2  0  0  0  0  0  0  0  0  0
  -16.1234  -37.9197   -7.4304 O   0  0  0  0  0  0  0  0  0  0  0  0
  -15.2489  -39.5527   -8.7393 C   0  0  0  0  0  0  0  0  0  0  0  0
  -13.9305  -39.6446   -8.2790 N   0  0  0  0  0  0  0  0  0  0  0  0
  -12.9819  -40.3401   -9.1094 C   0  0  0  0  0  0  0  0  0  0  0  0
  -12.7046  -39.6670  -10.3784 C   0  0  0  0  0  0  0  0  0  0  0  0
  -13.0431  -38.3542  -10.5985 C   0  0  0  0  0  0  0  0  0  0  0  0
  -12.7782  -37.7322  -11.8242 C   0  0  0  0  0  0  0  0  0  0  0  0
  -12.1648  -38.4730  -12.8144 C   0  0  0  0  0  0  0  0  0  0  0  0
  -11.8164  -39.7912  -12.6156 C   0  0  0  0  0  0  0  0  0  0  0  0
  -12.0957  -40.3629  -11.3937 C   0  0  0  0  0  0  0  0  0  0  0  0
  -13.1193  -36.3141  -12.1039 C   0  0  0  0  0  0  0  0  0  0  0  0
  -12.0932  -35.3797  -11.4479 C   0  0  0  0  0  0  0  0  0  0  0  0
  -14.4583  -35.9746  -11.4395 C   0  0  0  0  0  0  0  0  0  0  0  0
  1  2  1  0
  2  3  1  0
  3  4  2  0
  4  5  1  0
  5  6  2  0
  6  7  1  0
  8  7  1  1
  8  9  1  0
  9 10  1  0
 10 11  2  0
 10 12  1  0
 12 13  2  0
 13 14  1  0
 14 15  1  0
 14 16  2  0
 16 17  1  0
 17 18  2  0
 17 19  1  0
 19 20  1  0
 20 21  1  0
 21 22  1  0
 22 23  1  0
 23 24  1  0
 24 25  1  0
 25 26  2  0
  8 27  1  0
 27 28  1  6
 27 29  1  0
 29 30  1  0
 30 31  1  0
 31 32  1  0
 32 33  2  0
 33 34  1  0
 34 35  2  0
 35 36  1  0
 36 37  2  0
 34 38  1  0
 38 39  1  0
 38 40  1  0
 18 12  1  0
 25  3  1  0
 26  6  1  0
 37 32  1  0
M  END
$$$$
