
     RDKit          3D

 40 43  0  0  0  0  0  0  0  0999 V2000
  -24.6526  -38.8538   -4.9599 C   0  0  0  0  0  0  0  0  0  0  0  0
  -23.6595  -39.8327   -5.0915 O   0  0  0  0  0  0  0  0  0  0  0  0
  -22.5638  -39.5932   -5.9359 C   0  0  0  0  0  0  0  0  0  0  0  0
  -21.7104  -38.5929   -5.5459 C   0  0  0  0  0  0  0  0  0  0  0  0
  -20.6450  -38.3646   -6.3773 C   0  0  0  0  0  0  0  0  0  0  0  0
  -20.3971  -39.0830   -7.5688 C   0  0  0  0  0  0  0  0  0  0  0  0
  -19.0951  -38.5928   -8.1496 C   0  0  0  0  0  0  0  0  0  0  0  0
  -18.0600  -39.6856   -8.3880 C   0  0  2  0  0  0  0  0  0  0  0  0
  -18.6873  -40.9126   -7.9673 N   0  0  0  0  0  0  0  0  0  0  0  0
  -18.9066  -42.2326   -8.3217 C   0  0  0  0  0  0  0  0  0  0  0  0
  -18.8697  -42.4887   -9.6480 O   0  0  0  0  0  0  0  0  0  0  0  0
  -19.1932  -43.5152   -7.6014 C   0  0  0  0  0  0  0  0  0  0  0  0
  -18.3927  -44.5731   -8.0958 C   0  0  0  0  0  0  0  0  0  0  0  0
  -18.5176  -45.8824   -7.6738 C   0  0  0  0  0  0  0  0  0  0  0  0
  -17.4926  -47.1473   -8.3202 Cl  0  0  0  0  0  0  0  0  0  0  0  0
  -19.4486  -46.0865   -6.7661 N   0  0  0  0  0  0  0  0  0  0  0  0
  -20.2739  -45.1057   -6.2307 C   0  0  0  0  0  0  0  0  0  0  0  0
  -20.1499  -43.8133   -6.6413 C   0  0  0  0  0  0  0  0  0  0  0  0
  -21.1843  -45.7467   -5.3196 N   0  0  0  0  0  0  0  0  0  0  0  0
  -22.6342  -45.6440   -5.2700 C   0  0  0  0  0  0  0  0  0  0  0  0
  -23.1882  -44.9324   -6.4980 C   0  0  0  0  0  0  0  0  0  0  0  0
  -23.5676  -43.5033   -6.2665 C   0  0  0  0  0  0  0  0  0  0  0  0
  -23.4153  -42.6466   -7.5048 C   0  0  0  0  0  0  0  0  0  0  0  0
  -23.3510  -41.2873   -7.2758 O   0  0  0  0  0  0  0  0  0  0  0  0
  -22.3451  -40.3327   -7.1242 C   0  0  0  0  0  0  0  0  0  0  0  0
  -21.2596  -40.0718   -7.9440 C   0  0  0  0  0  0  0  0  0  0  0  0
  -16.7879  -39.4013   -7.6236 C   0  0  2  0  0  0  0  0  0  0  0  0
  -16.8810  -37.9909   -7.2418 O   0  0  0  0  0  0  0  0  0  0  0  0
  -15.5135  -39.4118   -8.3624 C   0  0  0  0  0  0  0  0  0  0  0  0
  -14.2782  -39.4565   -7.7064 N   0  0  0  0  0  0  0  0  0  0  0  0
  -13.0906  -39.4444   -8.5206 C   0  0  0  0  0  0  0  0  0  0  0  0
  -13.3559  -39.2574   -9.9471 C   0  0  0  0  0  0  0  0  0  0  0  0
  -12.9225  -38.1484  -10.6317 C   0  0  0  0  0  0  0  0  0  0  0  0
  -13.1963  -37.9839  -11.9946 C   0  0  0  0  0  0  0  0  0  0  0  0
  -13.9172  -38.9683  -12.6401 C   0  0  0  0  0  0  0  0  0  0  0  0
  -14.3619  -40.0892  -11.9733 C   0  0  0  0  0  0  0  0  0  0  0  0
  -14.0693  -40.2098  -10.6325 C   0  0  0  0  0  0  0  0  0  0  0  0
  -12.7415  -36.8060  -12.7763 C   0  0  0  0  0  0  0  0  0  0  0  0
  -11.2707  -36.4955  -12.4654 C   0  0  0  0  0  0  0  0  0  0  0  0
  -13.5211  -35.5661  -12.3241 C   0  0  0  0  0  0  0  0  0  0  0  0
  1  2  1  0
  2  3  1  0
  3  4  2  0
  4  5  1  0
  5  6  2  0
  6  7  1  0
  8  7  1  1
  8  9  1  0
  9 10  1  0
 10 11  2  0
 10 12  1  0
 12 13  2  0
 13 14  1  0
 14 15  1  0
 14 16  2  0
 16 17  1  0
 17 18  2  0
 17 19  1  0
 19 20  1  0
 20 21  1  0
 21 22  1  0
 22 23  1  0
 23 24  1  0
 24 25  1  0
 25 26  2  0
  8 27  1  0
 27 28  1  6
 27 29  1  0
 29 30  1  0
 30 31  1  0
 31 32  1  0
 32 33  2  0
 33 34  1  0
 34 35  2  0
 35 36  1  0
 36 37  2  0
 34 38  1  0
 38 39  1  0
 38 40  1  0
 18 12  1  0
 25  3  1  0
 26  6  1  0
 37 32  1  0
M  END
$$$$
