
     RDKit          3D

 40 43  0  0  0  0  0  0  0  0999 V2000
  -24.0843  -38.4119   -4.7624 C   0  0  0  0  0  0  0  0  0  0  0  0
  -23.2457  -39.4917   -5.0670 O   0  0  0  0  0  0  0  0  0  0  0  0
  -22.0895  -39.2714   -5.8324 C   0  0  0  0  0  0  0  0  0  0  0  0
  -21.1766  -38.3941   -5.3053 C   0  0  0  0  0  0  0  0  0  0  0  0
  -20.0522  -38.1835   -6.0603 C   0  0  0  0  0  0  0  0  0  0  0  0
  -19.8022  -38.8032   -7.3055 C   0  0  0  0  0  0  0  0  0  0  0  0
  -18.4338  -38.3784   -7.7743 C   0  0  0  0  0  0  0  0  0  0  0  0
  -17.4839  -39.5317   -8.0742 C   0  0  2  0  0  0  0  0  0  0  0  0
  -18.2350  -40.7321   -7.8081 N   0  0  0  0  0  0  0  0  0  0  0  0
  -18.5462  -41.9868   -8.3031 C   0  0  0  0  0  0  0  0  0  0  0  0
  -18.4595  -42.1163   -9.6454 O   0  0  0  0  0  0  0  0  0  0  0  0
  -18.9792  -43.3018   -7.7293 C   0  0  0  0  0  0  0  0  0  0  0  0
  -18.2459  -44.3748   -8.2908 C   0  0  0  0  0  0  0  0  0  0  0  0
  -18.5042  -45.7021   -8.0088 C   0  0  0  0  0  0  0  0  0  0  0  0
  -17.5569  -46.9859   -8.7321 Cl  0  0  0  0  0  0  0  0  0  0  0  0
  -19.4969  -45.9082   -7.1695 N   0  0  0  0  0  0  0  0  0  0  0  0
  -20.2637  -44.9133   -6.5762 C   0  0  0  0  0  0  0  0  0  0  0  0
  -20.0082  -43.6037   -6.8486 C   0  0  0  0  0  0  0  0  0  0  0  0
  -21.2731  -45.5546   -5.7766 N   0  0  0  0  0  0  0  0  0  0  0  0
  -22.7096  -45.3273   -5.7827 C   0  0  0  0  0  0  0  0  0  0  0  0
  -23.1339  -44.4538   -6.9568 C   0  0  0  0  0  0  0  0  0  0  0  0
  -23.4026  -43.0254   -6.6001 C   0  0  0  0  0  0  0  0  0  0  0  0
  -23.1113  -42.0705   -7.7377 C   0  0  0  0  0  0  0  0  0  0  0  0
  -22.9442  -40.7509   -7.3703 O   0  0  0  0  0  0  0  0  0  0  0  0
  -21.8706  -39.9097   -7.0778 C   0  0  0  0  0  0  0  0  0  0  0  0
  -20.7241  -39.6697   -7.8171 C   0  0  0  0  0  0  0  0  0  0  0  0
  -16.2354  -39.4378   -7.2280 C   0  0  2  0  0  0  0  0  0  0  0  0
  -15.6426  -38.1429   -7.5675 O   0  0  0  0  0  0  0  0  0  0  0  0
  -15.1183  -40.3493   -7.5303 C   0  0  0  0  0  0  0  0  0  0  0  0
  -14.2245  -40.1021   -8.5784 N   0  0  0  0  0  0  0  0  0  0  0  0
  -14.3276  -38.8367   -9.2575 C   0  0  0  0  0  0  0  0  0  0  0  0
  -15.3766  -38.7985  -10.2767 C   0  0  0  0  0  0  0  0  0  0  0  0
  -16.1729  -37.6953  -10.4647 C   0  0  0  0  0  0  0  0  0  0  0  0
  -17.1782  -37.6835  -11.4388 C   0  0  0  0  0  0  0  0  0  0  0  0
  -17.3530  -38.8137  -12.2118 C   0  0  0  0  0  0  0  0  0  0  0  0
  -16.5657  -39.9315  -12.0406 C   0  0  0  0  0  0  0  0  0  0  0  0
  -15.5882  -39.8990  -11.0703 C   0  0  0  0  0  0  0  0  0  0  0  0
  -18.0572  -36.5115  -11.6821 C   0  0  0  0  0  0  0  0  0  0  0  0
  -18.3784  -36.3877  -13.1781 C   0  0  0  0  0  0  0  0  0  0  0  0
  -17.3006  -35.2276  -11.3233 C   0  0  0  0  0  0  0  0  0  0  0  0
  1  2  1  0
  2  3  1  0
  3  4  2  0
  4  5  1  0
  5  6  2  0
  6  7  1  0
  8  7  1  1
  8  9  1  0
  9 10  1  0
 10 11  2  0
 10 12  1  0
 12 13  2  0
 13 14  1  0
 14 15  1  0
 14 16  2  0
 16 17  1  0
 17 18  2  0
 17 19  1  0
 19 20  1  0
 20 21  1  0
 21 22  1  0
 22 23  1  0
 23 24  1  0
 24 25  1  0
 25 26  2  0
  8 27  1  0
 27 28  1  6
 27 29  1  0
 29 30  1  0
 30 31  1  0
 31 32  1  0
 32 33  2  0
 33 34  1  0
 34 35  2  0
 35 36  1  0
 36 37  2  0
 34 38  1  0
 38 39  1  0
 38 40  1  0
 18 12  1  0
 25  3  1  0
 26  6  1  0
 37 32  1  0
M  END
$$$$
