
     RDKit          3D

 40 43  0  0  0  0  0  0  0  0999 V2000
  -23.2631  -40.0468   -2.9244 C   0  0  0  0  0  0  0  0  0  0  0  0
  -22.4787  -40.7282   -3.8638 O   0  0  0  0  0  0  0  0  0  0  0  0
  -21.6614  -39.9959   -4.7395 C   0  0  0  0  0  0  0  0  0  0  0  0
  -20.6962  -39.2177   -4.1533 C   0  0  0  0  0  0  0  0  0  0  0  0
  -19.9045  -38.5048   -5.0157 C   0  0  0  0  0  0  0  0  0  0  0  0
  -20.0333  -38.5339   -6.4227 C   0  0  0  0  0  0  0  0  0  0  0  0
  -18.9341  -37.6869   -7.0117 C   0  0  0  0  0  0  0  0  0  0  0  0
  -18.0506  -38.4121   -8.0197 C   0  0  2  0  0  0  0  0  0  0  0  0
  -18.5764  -39.7510   -8.1037 N   0  0  0  0  0  0  0  0  0  0  0  0
  -18.9358  -40.7556   -8.9854 C   0  0  0  0  0  0  0  0  0  0  0  0
  -19.2882  -40.3405  -10.2221 O   0  0  0  0  0  0  0  0  0  0  0  0
  -19.0518  -42.2491   -8.9384 C   0  0  0  0  0  0  0  0  0  0  0  0
  -18.4648  -42.8471  -10.0795 C   0  0  0  0  0  0  0  0  0  0  0  0
  -18.5120  -44.2035  -10.3363 C   0  0  0  0  0  0  0  0  0  0  0  0
  -17.7610  -44.8847  -11.7648 Cl  0  0  0  0  0  0  0  0  0  0  0  0
  -19.1523  -44.9171   -9.4345 N   0  0  0  0  0  0  0  0  0  0  0  0
  -19.7541  -44.4086   -8.2905 C   0  0  0  0  0  0  0  0  0  0  0  0
  -19.7051  -43.0724   -8.0322 C   0  0  0  0  0  0  0  0  0  0  0  0
  -20.3896  -45.5023   -7.6051 N   0  0  0  0  0  0  0  0  0  0  0  0
  -21.7604  -45.5948   -7.1279 C   0  0  0  0  0  0  0  0  0  0  0  0
  -22.6152  -44.4478   -7.6523 C   0  0  0  0  0  0  0  0  0  0  0  0
  -22.8603  -43.3547   -6.6599 C   0  0  0  0  0  0  0  0  0  0  0  0
  -23.0363  -41.9992   -7.3098 C   0  0  0  0  0  0  0  0  0  0  0  0
  -22.8595  -40.9172   -6.4718 O   0  0  0  0  0  0  0  0  0  0  0  0
  -21.8180  -40.0482   -6.1465 C   0  0  0  0  0  0  0  0  0  0  0  0
  -21.0026  -39.3102   -6.9885 C   0  0  0  0  0  0  0  0  0  0  0  0
  -16.6038  -38.3912   -7.5841 C   0  0  2  0  0  0  0  0  0  0  0  0
  -16.4034  -37.0661   -6.9947 O   0  0  0  0  0  0  0  0  0  0  0  0
  -15.5621  -38.3989   -8.6257 C   0  0  0  0  0  0  0  0  0  0  0  0
  -14.2339  -38.7357   -8.3414 N   0  0  0  0  0  0  0  0  0  0  0  0
  -13.1999  -38.0050   -9.0271 C   0  0  0  0  0  0  0  0  0  0  0  0
  -13.6789  -37.2559  -10.1889 C   0  0  0  0  0  0  0  0  0  0  0  0
  -13.6607  -37.7835  -11.4568 C   0  0  0  0  0  0  0  0  0  0  0  0
  -14.1141  -37.0456  -12.5565 C   0  0  0  0  0  0  0  0  0  0  0  0
  -14.5831  -35.7660  -12.3368 C   0  0  0  0  0  0  0  0  0  0  0  0
  -14.6107  -35.2167  -11.0735 C   0  0  0  0  0  0  0  0  0  0  0  0
  -14.1550  -35.9789  -10.0203 C   0  0  0  0  0  0  0  0  0  0  0  0
  -14.1201  -37.5779  -13.9429 C   0  0  0  0  0  0  0  0  0  0  0  0
  -14.7259  -38.9881  -13.9698 C   0  0  0  0  0  0  0  0  0  0  0  0
  -12.6756  -37.7489  -14.4262 C   0  0  0  0  0  0  0  0  0  0  0  0
  1  2  1  0
  2  3  1  0
  3  4  2  0
  4  5  1  0
  5  6  2  0
  6  7  1  0
  8  7  1  1
  8  9  1  0
  9 10  1  0
 10 11  2  0
 10 12  1  0
 12 13  2  0
 13 14  1  0
 14 15  1  0
 14 16  2  0
 16 17  1  0
 17 18  2  0
 17 19  1  0
 19 20  1  0
 20 21  1  0
 21 22  1  0
 22 23  1  0
 23 24  1  0
 24 25  1  0
 25 26  2  0
  8 27  1  0
 27 28  1  6
 27 29  1  0
 29 30  1  0
 30 31  1  0
 31 32  1  0
 32 33  2  0
 33 34  1  0
 34 35  2  0
 35 36  1  0
 36 37  2  0
 34 38  1  0
 38 39  1  0
 38 40  1  0
 18 12  1  0
 25  3  1  0
 26  6  1  0
 37 32  1  0
M  END
$$$$
