
     RDKit          3D

 40 43  0  0  0  0  0  0  0  0999 V2000
  -23.9050  -39.4609   -3.5498 C   0  0  0  0  0  0  0  0  0  0  0  0
  -22.6925  -40.1075   -3.8216 O   0  0  0  0  0  0  0  0  0  0  0  0
  -21.9309  -39.7054   -4.9304 C   0  0  0  0  0  0  0  0  0  0  0  0
  -21.0528  -38.6740   -4.7156 C   0  0  0  0  0  0  0  0  0  0  0  0
  -20.3153  -38.2867   -5.8040 C   0  0  0  0  0  0  0  0  0  0  0  0
  -20.4152  -38.8772   -7.0840 C   0  0  0  0  0  0  0  0  0  0  0  0
  -19.3889  -38.2315   -7.9797 C   0  0  0  0  0  0  0  0  0  0  0  0
  -18.4238  -39.2090   -8.6398 C   0  0  2  0  0  0  0  0  0  0  0  0
  -18.8216  -40.5158   -8.1815 N   0  0  0  0  0  0  0  0  0  0  0  0
  -19.0702  -41.8144   -8.5912 C   0  0  0  0  0  0  0  0  0  0  0  0
  -19.4371  -41.9521   -9.8844 O   0  0  0  0  0  0  0  0  0  0  0  0
  -19.0479  -43.1734   -7.9599 C   0  0  0  0  0  0  0  0  0  0  0  0
  -18.3875  -44.1141   -8.7865 C   0  0  0  0  0  0  0  0  0  0  0  0
  -18.3040  -45.4606   -8.4897 C   0  0  0  0  0  0  0  0  0  0  0  0
  -17.4673  -46.5749   -9.5511 Cl  0  0  0  0  0  0  0  0  0  0  0  0
  -18.8915  -45.8191   -7.3677 N   0  0  0  0  0  0  0  0  0  0  0  0
  -19.5585  -44.9605   -6.5031 C   0  0  0  0  0  0  0  0  0  0  0  0
  -19.6384  -43.6319   -6.7907 C   0  0  0  0  0  0  0  0  0  0  0  0
  -20.1022  -45.7513   -5.4313 N   0  0  0  0  0  0  0  0  0  0  0  0
  -21.4668  -45.7754   -4.9289 C   0  0  0  0  0  0  0  0  0  0  0  0
  -22.4147  -45.0104   -5.8442 C   0  0  0  0  0  0  0  0  0  0  0  0
  -22.7781  -43.6434   -5.3554 C   0  0  0  0  0  0  0  0  0  0  0  0
  -23.0673  -42.6741   -6.4812 C   0  0  0  0  0  0  0  0  0  0  0  0
  -23.0068  -41.3387   -6.1384 O   0  0  0  0  0  0  0  0  0  0  0  0
  -22.0565  -40.3196   -6.2007 C   0  0  0  0  0  0  0  0  0  0  0  0
  -21.2980  -39.8992   -7.2807 C   0  0  0  0  0  0  0  0  0  0  0  0
  -16.9933  -38.8853   -8.2761 C   0  0  2  0  0  0  0  0  0  0  0  0
  -17.0072  -37.4698   -7.9022 O   0  0  0  0  0  0  0  0  0  0  0  0
  -15.9842  -38.8854   -9.3492 C   0  0  0  0  0  0  0  0  0  0  0  0
  -14.7005  -39.4088   -9.1578 N   0  0  0  0  0  0  0  0  0  0  0  0
  -13.5816  -38.5802   -9.5249 C   0  0  0  0  0  0  0  0  0  0  0  0
  -13.7339  -37.9262  -10.8247 C   0  0  0  0  0  0  0  0  0  0  0  0
  -12.7402  -37.9442  -11.7727 C   0  0  0  0  0  0  0  0  0  0  0  0
  -12.9024  -37.3028  -13.0063 C   0  0  0  0  0  0  0  0  0  0  0  0
  -14.0920  -36.6466  -13.2506 C   0  0  0  0  0  0  0  0  0  0  0  0
  -15.1024  -36.6157  -12.3143 C   0  0  0  0  0  0  0  0  0  0  0  0
  -14.8997  -37.2606  -11.1139 C   0  0  0  0  0  0  0  0  0  0  0  0
  -11.8590  -37.3027  -14.0631 C   0  0  0  0  0  0  0  0  0  0  0  0
  -11.5760  -38.7364  -14.5329 C   0  0  0  0  0  0  0  0  0  0  0  0
  -10.5370  -36.8030  -13.4698 C   0  0  0  0  0  0  0  0  0  0  0  0
  1  2  1  0
  2  3  1  0
  3  4  2  0
  4  5  1  0
  5  6  2  0
  6  7  1  0
  8  7  1  1
  8  9  1  0
  9 10  1  0
 10 11  2  0
 10 12  1  0
 12 13  2  0
 13 14  1  0
 14 15  1  0
 14 16  2  0
 16 17  1  0
 17 18  2  0
 17 19  1  0
 19 20  1  0
 20 21  1  0
 21 22  1  0
 22 23  1  0
 23 24  1  0
 24 25  1  0
 25 26  2  0
  8 27  1  0
 27 28  1  6
 27 29  1  0
 29 30  1  0
 30 31  1  0
 31 32  1  0
 32 33  2  0
 33 34  1  0
 34 35  2  0
 35 36  1  0
 36 37  2  0
 34 38  1  0
 38 39  1  0
 38 40  1  0
 18 12  1  0
 25  3  1  0
 26  6  1  0
 37 32  1  0
M  END
$$$$
