
     RDKit          3D

 40 43  0  0  0  0  0  0  0  0999 V2000
  -24.3029  -40.9167   -4.7467 C   0  0  0  0  0  0  0  0  0  0  0  0
  -23.1976  -41.5552   -5.3236 O   0  0  0  0  0  0  0  0  0  0  0  0
  -22.2363  -40.7893   -6.0020 C   0  0  0  0  0  0  0  0  0  0  0  0
  -21.5128  -39.9132   -5.2339 C   0  0  0  0  0  0  0  0  0  0  0  0
  -20.5783  -39.1682   -5.9049 C   0  0  0  0  0  0  0  0  0  0  0  0
  -20.3374  -39.2580   -7.2945 C   0  0  0  0  0  0  0  0  0  0  0  0
  -19.1866  -38.3441   -7.6308 C   0  0  0  0  0  0  0  0  0  0  0  0
  -18.0238  -39.0289   -8.3391 C   0  0  2  0  0  0  0  0  0  0  0  0
  -18.4136  -40.4090   -8.4793 N   0  0  0  0  0  0  0  0  0  0  0  0
  -18.4611  -41.4707   -9.3661 C   0  0  0  0  0  0  0  0  0  0  0  0
  -18.5112  -41.1305  -10.6728 O   0  0  0  0  0  0  0  0  0  0  0  0
  -18.4788  -42.9660   -9.2669 C   0  0  0  0  0  0  0  0  0  0  0  0
  -17.5764  -43.5534  -10.1862 C   0  0  0  0  0  0  0  0  0  0  0  0
  -17.4592  -44.9174  -10.3706 C   0  0  0  0  0  0  0  0  0  0  0  0
  -16.3188  -45.5842  -11.5209 Cl  0  0  0  0  0  0  0  0  0  0  0  0
  -18.2580  -45.6492   -9.6230 N   0  0  0  0  0  0  0  0  0  0  0  0
  -19.1691  -45.1519   -8.6997 C   0  0  0  0  0  0  0  0  0  0  0  0
  -19.2835  -43.8080   -8.5123 C   0  0  0  0  0  0  0  0  0  0  0  0
  -19.8804  -46.2695   -8.1387 N   0  0  0  0  0  0  0  0  0  0  0  0
  -21.3177  -46.4584   -8.0213 C   0  0  0  0  0  0  0  0  0  0  0  0
  -22.0877  -45.4057   -8.8090 C   0  0  0  0  0  0  0  0  0  0  0  0
  -22.6575  -44.3021   -7.9740 C   0  0  0  0  0  0  0  0  0  0  0  0
  -22.7558  -42.9899   -8.7217 C   0  0  0  0  0  0  0  0  0  0  0  0
  -22.8786  -41.8678   -7.9279 O   0  0  0  0  0  0  0  0  0  0  0  0
  -22.0207  -40.9044   -7.3973 C   0  0  0  0  0  0  0  0  0  0  0  0
  -21.0703  -40.1317   -8.0441 C   0  0  0  0  0  0  0  0  0  0  0  0
  -16.7436  -38.8725   -7.5518 C   0  0  2  0  0  0  0  0  0  0  0  0
  -16.8444  -37.5556   -6.9199 O   0  0  0  0  0  0  0  0  0  0  0  0
  -15.4799  -38.7340   -8.2962 C   0  0  0  0  0  0  0  0  0  0  0  0
  -15.2221  -37.6307   -9.1176 N   0  0  0  0  0  0  0  0  0  0  0  0
  -15.1794  -37.8542  -10.5394 C   0  0  0  0  0  0  0  0  0  0  0  0
  -14.3241  -38.9734  -10.9347 C   0  0  0  0  0  0  0  0  0  0  0  0
  -14.7282  -40.2804  -10.8130 C   0  0  0  0  0  0  0  0  0  0  0  0
  -13.8899  -41.3371  -11.1874 C   0  0  0  0  0  0  0  0  0  0  0  0
  -12.6385  -41.0341  -11.6851 C   0  0  0  0  0  0  0  0  0  0  0  0
  -12.2123  -39.7303  -11.8160 C   0  0  0  0  0  0  0  0  0  0  0  0
  -13.0704  -38.7219  -11.4354 C   0  0  0  0  0  0  0  0  0  0  0  0
  -14.2874  -42.7640  -11.0805 C   0  0  0  0  0  0  0  0  0  0  0  0
  -13.7355  -43.3754   -9.7852 C   0  0  0  0  0  0  0  0  0  0  0  0
  -13.6311  -43.5591  -12.2148 C   0  0  0  0  0  0  0  0  0  0  0  0
  1  2  1  0
  2  3  1  0
  3  4  2  0
  4  5  1  0
  5  6  2  0
  6  7  1  0
  8  7  1  1
  8  9  1  0
  9 10  1  0
 10 11  2  0
 10 12  1  0
 12 13  2  0
 13 14  1  0
 14 15  1  0
 14 16  2  0
 16 17  1  0
 17 18  2  0
 17 19  1  0
 19 20  1  0
 20 21  1  0
 21 22  1  0
 22 23  1  0
 23 24  1  0
 24 25  1  0
 25 26  2  0
  8 27  1  0
 27 28  1  6
 27 29  1  0
 29 30  1  0
 30 31  1  0
 31 32  1  0
 32 33  2  0
 33 34  1  0
 34 35  2  0
 35 36  1  0
 36 37  2  0
 34 38  1  0
 38 39  1  0
 38 40  1  0
 18 12  1  0
 25  3  1  0
 26  6  1  0
 37 32  1  0
M  END
$$$$
