
     RDKit          3D

 40 43  0  0  0  0  0  0  0  0999 V2000
  -23.2949  -40.0743   -4.2467 C   0  0  0  0  0  0  0  0  0  0  0  0
  -23.3657  -39.7697   -5.6121 O   0  0  0  0  0  0  0  0  0  0  0  0
  -22.2098  -39.3394   -6.2827 C   0  0  0  0  0  0  0  0  0  0  0  0
  -21.3487  -38.5568   -5.5568 C   0  0  0  0  0  0  0  0  0  0  0  0
  -20.2242  -38.1396   -6.2201 C   0  0  0  0  0  0  0  0  0  0  0  0
  -19.9252  -38.4652   -7.5623 C   0  0  0  0  0  0  0  0  0  0  0  0
  -18.5719  -37.8898   -7.8941 C   0  0  0  0  0  0  0  0  0  0  0  0
  -17.5627  -38.9088   -8.4097 C   0  0  2  0  0  0  0  0  0  0  0  0
  -18.2590  -40.1702   -8.4263 N   0  0  0  0  0  0  0  0  0  0  0  0
  -18.5014  -41.3013   -9.1864 C   0  0  0  0  0  0  0  0  0  0  0  0
  -18.3877  -41.1350  -10.5225 O   0  0  0  0  0  0  0  0  0  0  0  0
  -18.8792  -42.7267   -8.9189 C   0  0  0  0  0  0  0  0  0  0  0  0
  -18.0862  -43.6205   -9.6783 C   0  0  0  0  0  0  0  0  0  0  0  0
  -18.2844  -44.9874   -9.6939 C   0  0  0  0  0  0  0  0  0  0  0  0
  -17.2650  -46.0426  -10.6509 Cl  0  0  0  0  0  0  0  0  0  0  0  0
  -19.2789  -45.4127   -8.9438 N   0  0  0  0  0  0  0  0  0  0  0  0
  -20.1020  -44.6033   -8.1710 C   0  0  0  0  0  0  0  0  0  0  0  0
  -19.9060  -43.2559   -8.1498 C   0  0  0  0  0  0  0  0  0  0  0  0
  -21.0916  -45.4454   -7.5534 N   0  0  0  0  0  0  0  0  0  0  0  0
  -22.5371  -45.2853   -7.5474 C   0  0  0  0  0  0  0  0  0  0  0  0
  -22.9849  -44.1991   -8.5176 C   0  0  0  0  0  0  0  0  0  0  0  0
  -23.3278  -42.8942   -7.8701 C   0  0  0  0  0  0  0  0  0  0  0  0
  -23.0654  -41.7050   -8.7689 C   0  0  0  0  0  0  0  0  0  0  0  0
  -22.9679  -40.4893   -8.1232 O   0  0  0  0  0  0  0  0  0  0  0  0
  -21.9409  -39.6845   -7.6300 C   0  0  0  0  0  0  0  0  0  0  0  0
  -20.7961  -39.2410   -8.2711 C   0  0  0  0  0  0  0  0  0  0  0  0
  -16.3336  -38.9445   -7.5315 C   0  0  2  0  0  0  0  0  0  0  0  0
  -16.1987  -37.5828   -7.0109 O   0  0  0  0  0  0  0  0  0  0  0  0
  -15.0221  -39.1334   -8.1752 C   0  0  0  0  0  0  0  0  0  0  0  0
  -14.5169  -40.4057   -8.4661 N   0  0  0  0  0  0  0  0  0  0  0  0
  -13.1856  -40.4858   -9.0087 C   0  0  0  0  0  0  0  0  0  0  0  0
  -13.0644  -39.9315  -10.3572 C   0  0  0  0  0  0  0  0  0  0  0  0
  -12.8828  -38.5886  -10.5816 C   0  0  0  0  0  0  0  0  0  0  0  0
  -12.7798  -38.0774  -11.8807 C   0  0  0  0  0  0  0  0  0  0  0  0
  -12.8656  -38.9593  -12.9391 C   0  0  0  0  0  0  0  0  0  0  0  0
  -13.0475  -40.3102  -12.7374 C   0  0  0  0  0  0  0  0  0  0  0  0
  -13.1434  -40.7696  -11.4421 C   0  0  0  0  0  0  0  0  0  0  0  0
  -12.5757  -36.6352  -12.1703 C   0  0  0  0  0  0  0  0  0  0  0  0
  -13.8167  -35.8289  -11.7627 C   0  0  0  0  0  0  0  0  0  0  0  0
  -12.4434  -36.4363  -13.6844 C   0  0  0  0  0  0  0  0  0  0  0  0
  1  2  1  0
  2  3  1  0
  3  4  2  0
  4  5  1  0
  5  6  2  0
  6  7  1  0
  8  7  1  1
  8  9  1  0
  9 10  1  0
 10 11  2  0
 10 12  1  0
 12 13  2  0
 13 14  1  0
 14 15  1  0
 14 16  2  0
 16 17  1  0
 17 18  2  0
 17 19  1  0
 19 20  1  0
 20 21  1  0
 21 22  1  0
 22 23  1  0
 23 24  1  0
 24 25  1  0
 25 26  2  0
  8 27  1  0
 27 28  1  6
 27 29  1  0
 29 30  1  0
 30 31  1  0
 31 32  1  0
 32 33  2  0
 33 34  1  0
 34 35  2  0
 35 36  1  0
 36 37  2  0
 34 38  1  0
 38 39  1  0
 38 40  1  0
 18 12  1  0
 25  3  1  0
 26  6  1  0
 37 32  1  0
M  END
$$$$
