
     RDKit          3D

 40 43  0  0  0  0  0  0  0  0999 V2000
  -10.6011  -37.2541  -11.8692 C   0  0  0  0  0  0  0  0  0  0  0  0
  -11.7703  -38.0203  -11.9585 O   0  0  0  0  0  0  0  0  0  0  0  0
  -12.6445  -38.0734  -10.8612 C   0  0  0  0  0  0  0  0  0  0  0  0
  -13.2784  -36.9007  -10.5391 C   0  0  0  0  0  0  0  0  0  0  0  0
  -14.1281  -36.9614   -9.4653 C   0  0  0  0  0  0  0  0  0  0  0  0
  -14.3696  -38.1290   -8.7066 C   0  0  0  0  0  0  0  0  0  0  0  0
  -15.4189  -37.8078   -7.6730 C   0  0  0  0  0  0  0  0  0  0  0  0
  -16.6420  -38.7161   -7.7128 C   0  0  2  0  0  0  0  0  0  0  0  0
  -16.3949  -39.6528   -8.7794 N   0  0  0  0  0  0  0  0  0  0  0  0
  -16.4518  -40.9922   -9.1240 C   0  0  0  0  0  0  0  0  0  0  0  0
  -16.3602  -41.8590   -8.0915 O   0  0  0  0  0  0  0  0  0  0  0  0
  -16.5880  -41.7807  -10.3912 C   0  0  0  0  0  0  0  0  0  0  0  0
  -17.5409  -42.8185  -10.2517 C   0  0  0  0  0  0  0  0  0  0  0  0
  -17.7963  -43.7535  -11.2358 C   0  0  0  0  0  0  0  0  0  0  0  0
  -18.9930  -45.0118  -11.0053 Cl  0  0  0  0  0  0  0  0  0  0  0  0
  -17.0807  -43.6154  -12.3319 N   0  0  0  0  0  0  0  0  0  0  0  0
  -16.1284  -42.6273  -12.5472 C   0  0  0  0  0  0  0  0  0  0  0  0
  -15.8778  -41.7012  -11.5808 C   0  0  0  0  0  0  0  0  0  0  0  0
  -15.5383  -42.8598  -13.8385 N   0  0  0  0  0  0  0  0  0  0  0  0
  -14.1286  -42.9539  -14.1836 C   0  0  0  0  0  0  0  0  0  0  0  0
  -13.2506  -43.0254  -12.9404 C   0  0  0  0  0  0  0  0  0  0  0  0
  -12.5751  -41.7380  -12.5851 C   0  0  0  0  0  0  0  0  0  0  0  0
  -12.3389  -41.5891  -11.0976 C   0  0  0  0  0  0  0  0  0  0  0  0
  -12.1060  -40.2997  -10.6648 O   0  0  0  0  0  0  0  0  0  0  0  0
  -12.8634  -39.2617  -10.1219 C   0  0  0  0  0  0  0  0  0  0  0  0
  -13.7261  -39.2858   -9.0385 C   0  0  0  0  0  0  0  0  0  0  0  0
  -17.9036  -37.9147   -7.9351 C   0  0  2  0  0  0  0  0  0  0  0  0
  -17.6721  -36.6429   -7.2477 O   0  0  0  0  0  0  0  0  0  0  0  0
  -19.1426  -38.3694   -7.2808 C   0  0  0  0  0  0  0  0  0  0  0  0
  -20.3935  -38.2427   -7.8954 N   0  0  0  0  0  0  0  0  0  0  0  0
  -21.1047  -39.4533   -8.2146 C   0  0  0  0  0  0  0  0  0  0  0  0
  -20.9734  -40.4990   -7.1999 C   0  0  0  0  0  0  0  0  0  0  0  0
  -21.8320  -40.5929   -6.1319 C   0  0  0  0  0  0  0  0  0  0  0  0
  -21.6822  -41.5951   -5.1662 C   0  0  0  0  0  0  0  0  0  0  0  0
  -20.6444  -42.4937   -5.3120 C   0  0  0  0  0  0  0  0  0  0  0  0
  -19.7713  -42.4184   -6.3753 C   0  0  0  0  0  0  0  0  0  0  0  0
  -19.9564  -41.4161   -7.3021 C   0  0  0  0  0  0  0  0  0  0  0  0
  -22.5904  -41.7393   -4.0001 C   0  0  0  0  0  0  0  0  0  0  0  0
  -23.9114  -41.0015   -4.2590 C   0  0  0  0  0  0  0  0  0  0  0  0
  -21.9691  -41.0421   -2.7847 C   0  0  0  0  0  0  0  0  0  0  0  0
  1  2  1  0
  2  3  1  0
  3  4  2  0
  4  5  1  0
  5  6  2  0
  6  7  1  0
  8  7  1  6
  8  9  1  0
  9 10  1  0
 10 11  2  0
 10 12  1  0
 12 13  2  0
 13 14  1  0
 14 15  1  0
 14 16  2  0
 16 17  1  0
 17 18  2  0
 17 19  1  0
 19 20  1  0
 20 21  1  0
 21 22  1  0
 22 23  1  0
 23 24  1  0
 24 25  1  0
 25 26  2  0
  8 27  1  0
 27 28  1  1
 27 29  1  0
 29 30  1  0
 30 31  1  0
 31 32  1  0
 32 33  2  0
 33 34  1  0
 34 35  2  0
 35 36  1  0
 36 37  2  0
 34 38  1  0
 38 39  1  0
 38 40  1  0
 18 12  1  0
 25  3  1  0
 26  6  1  0
 37 32  1  0
M  END
$$$$
