
     RDKit          3D

 40 43  0  0  0  0  0  0  0  0999 V2000
  -22.4394  -39.2790   -3.7141 C   0  0  0  0  0  0  0  0  0  0  0  0
  -22.6399  -39.5692   -5.0697 O   0  0  0  0  0  0  0  0  0  0  0  0
  -21.6424  -39.2368   -6.0001 C   0  0  0  0  0  0  0  0  0  0  0  0
  -20.6690  -38.3776   -5.5583 C   0  0  0  0  0  0  0  0  0  0  0  0
  -19.7008  -38.0570   -6.4738 C   0  0  0  0  0  0  0  0  0  0  0  0
  -19.6625  -38.5508   -7.7974 C   0  0  0  0  0  0  0  0  0  0  0  0
  -18.4079  -38.0340   -8.4545 C   0  0  0  0  0  0  0  0  0  0  0  0
  -17.5023  -39.1187   -9.0251 C   0  0  2  0  0  0  0  0  0  0  0  0
  -18.1692  -40.3657   -8.7491 N   0  0  0  0  0  0  0  0  0  0  0  0
  -18.5369  -41.5808   -9.3009 C   0  0  0  0  0  0  0  0  0  0  0  0
  -18.6867  -41.5840  -10.6438 O   0  0  0  0  0  0  0  0  0  0  0  0
  -18.8339  -42.9580   -8.7898 C   0  0  0  0  0  0  0  0  0  0  0  0
  -18.1895  -43.9471   -9.5713 C   0  0  0  0  0  0  0  0  0  0  0  0
  -18.3660  -45.3033   -9.3778 C   0  0  0  0  0  0  0  0  0  0  0  0
  -17.5353  -46.4793  -10.3755 Cl  0  0  0  0  0  0  0  0  0  0  0  0
  -19.1899  -45.6221   -8.4021 N   0  0  0  0  0  0  0  0  0  0  0  0
  -19.8600  -44.7149   -7.5911 C   0  0  0  0  0  0  0  0  0  0  0  0
  -19.6842  -43.3773   -7.7764 C   0  0  0  0  0  0  0  0  0  0  0  0
  -20.6983  -45.4639   -6.6933 N   0  0  0  0  0  0  0  0  0  0  0  0
  -22.1176  -45.2910   -6.4270 C   0  0  0  0  0  0  0  0  0  0  0  0
  -22.7612  -44.3306   -7.4194 C   0  0  0  0  0  0  0  0  0  0  0  0
  -22.9922  -42.9518   -6.8853 C   0  0  0  0  0  0  0  0  0  0  0  0
  -22.9270  -41.8869   -7.9588 C   0  0  0  0  0  0  0  0  0  0  0  0
  -22.7250  -40.6009   -7.5008 O   0  0  0  0  0  0  0  0  0  0  0  0
  -21.6343  -39.7503   -7.3203 C   0  0  0  0  0  0  0  0  0  0  0  0
  -20.6421  -39.4010   -8.2215 C   0  0  0  0  0  0  0  0  0  0  0  0
  -16.1259  -39.0557   -8.4046 C   0  0  2  0  0  0  0  0  0  0  0  0
  -16.0085  -37.6947   -7.8778 O   0  0  0  0  0  0  0  0  0  0  0  0
  -14.9555  -39.1165   -9.2970 C   0  0  0  0  0  0  0  0  0  0  0  0
  -13.6479  -39.1633   -8.8003 N   0  0  0  0  0  0  0  0  0  0  0  0
  -12.5784  -38.8400   -9.7084 C   0  0  0  0  0  0  0  0  0  0  0  0
  -12.8721  -39.1644  -11.1045 C   0  0  0  0  0  0  0  0  0  0  0  0
  -12.3859  -38.4139  -12.1470 C   0  0  0  0  0  0  0  0  0  0  0  0
  -12.6878  -38.7355  -13.4755 C   0  0  0  0  0  0  0  0  0  0  0  0
  -13.4913  -39.8318  -13.7164 C   0  0  0  0  0  0  0  0  0  0  0  0
  -13.9900  -40.5989  -12.6861 C   0  0  0  0  0  0  0  0  0  0  0  0
  -13.6671  -40.2459  -11.3942 C   0  0  0  0  0  0  0  0  0  0  0  0
  -12.1785  -37.9577  -14.6336 C   0  0  0  0  0  0  0  0  0  0  0  0
  -10.7302  -37.5152  -14.3829 C   0  0  0  0  0  0  0  0  0  0  0  0
  -12.9816  -36.6587  -14.7640 C   0  0  0  0  0  0  0  0  0  0  0  0
  1  2  1  0
  2  3  1  0
  3  4  2  0
  4  5  1  0
  5  6  2  0
  6  7  1  0
  8  7  1  1
  8  9  1  0
  9 10  1  0
 10 11  2  0
 10 12  1  0
 12 13  2  0
 13 14  1  0
 14 15  1  0
 14 16  2  0
 16 17  1  0
 17 18  2  0
 17 19  1  0
 19 20  1  0
 20 21  1  0
 21 22  1  0
 22 23  1  0
 23 24  1  0
 24 25  1  0
 25 26  2  0
  8 27  1  0
 27 28  1  6
 27 29  1  0
 29 30  1  0
 30 31  1  0
 31 32  1  0
 32 33  2  0
 33 34  1  0
 34 35  2  0
 35 36  1  0
 36 37  2  0
 34 38  1  0
 38 39  1  0
 38 40  1  0
 18 12  1  0
 25  3  1  0
 26  6  1  0
 37 32  1  0
M  END
$$$$
