
     RDKit          3D

 40 43  0  0  0  0  0  0  0  0999 V2000
  -24.0899  -38.1758   -5.8531 C   0  0  0  0  0  0  0  0  0  0  0  0
  -23.3985  -39.2036   -6.5071 O   0  0  0  0  0  0  0  0  0  0  0  0
  -22.0872  -38.9760   -6.9539 C   0  0  0  0  0  0  0  0  0  0  0  0
  -21.2882  -38.2333   -6.1226 C   0  0  0  0  0  0  0  0  0  0  0  0
  -20.0106  -38.0143   -6.5678 C   0  0  0  0  0  0  0  0  0  0  0  0
  -19.5011  -38.4984   -7.7938 C   0  0  0  0  0  0  0  0  0  0  0  0
  -18.0449  -38.1181   -7.8793 C   0  0  0  0  0  0  0  0  0  0  0  0
  -17.0989  -39.2917   -8.1041 C   0  0  2  0  0  0  0  0  0  0  0  0
  -17.9398  -40.4595   -8.1756 N   0  0  0  0  0  0  0  0  0  0  0  0
  -18.1771  -41.6219   -8.8887 C   0  0  0  0  0  0  0  0  0  0  0  0
  -17.7836  -41.5976  -10.1812 O   0  0  0  0  0  0  0  0  0  0  0  0
  -18.7858  -42.9619   -8.6061 C   0  0  0  0  0  0  0  0  0  0  0  0
  -17.9856  -44.0098   -9.1220 C   0  0  0  0  0  0  0  0  0  0  0  0
  -18.3567  -45.3398   -9.0828 C   0  0  0  0  0  0  0  0  0  0  0  0
  -17.3195  -46.5923   -9.7338 Cl  0  0  0  0  0  0  0  0  0  0  0  0
  -19.5261  -45.5735   -8.5257 N   0  0  0  0  0  0  0  0  0  0  0  0
  -20.3694  -44.6044   -7.9969 C   0  0  0  0  0  0  0  0  0  0  0  0
  -20.0041  -43.2930   -8.0298 C   0  0  0  0  0  0  0  0  0  0  0  0
  -21.5634  -45.2634   -7.5390 N   0  0  0  0  0  0  0  0  0  0  0  0
  -22.9479  -44.9368   -7.8418 C   0  0  0  0  0  0  0  0  0  0  0  0
  -23.0492  -43.9031   -8.9565 C   0  0  0  0  0  0  0  0  0  0  0  0
  -23.3356  -42.5116   -8.4859 C   0  0  0  0  0  0  0  0  0  0  0  0
  -22.7471  -41.4518   -9.3921 C   0  0  0  0  0  0  0  0  0  0  0  0
  -22.6171  -40.1998   -8.8264 O   0  0  0  0  0  0  0  0  0  0  0  0
  -21.6086  -39.4764   -8.1897 C   0  0  0  0  0  0  0  0  0  0  0  0
  -20.3119  -39.2316   -8.6108 C   0  0  0  0  0  0  0  0  0  0  0  0
  -16.0808  -39.3862   -6.9914 C   0  0  2  0  0  0  0  0  0  0  0  0
  -15.4582  -38.0625   -6.9324 O   0  0  0  0  0  0  0  0  0  0  0  0
  -14.9019  -40.2454   -7.1964 C   0  0  0  0  0  0  0  0  0  0  0  0
  -13.8731  -39.8924   -8.0769 N   0  0  0  0  0  0  0  0  0  0  0  0
  -13.8469  -40.5377   -9.3639 C   0  0  0  0  0  0  0  0  0  0  0  0
  -14.0317  -39.6192  -10.4876 C   0  0  0  0  0  0  0  0  0  0  0  0
  -14.7860  -38.4764  -10.3809 C   0  0  0  0  0  0  0  0  0  0  0  0
  -14.9587  -37.6164  -11.4717 C   0  0  0  0  0  0  0  0  0  0  0  0
  -14.3499  -37.9449  -12.6662 C   0  0  0  0  0  0  0  0  0  0  0  0
  -13.5887  -39.0861  -12.7960 C   0  0  0  0  0  0  0  0  0  0  0  0
  -13.4453  -39.9035  -11.6963 C   0  0  0  0  0  0  0  0  0  0  0  0
  -15.7586  -36.3671  -11.4002 C   0  0  0  0  0  0  0  0  0  0  0  0
  -15.0926  -35.3614  -10.4507 C   0  0  0  0  0  0  0  0  0  0  0  0
  -17.1227  -36.6741  -10.7722 C   0  0  0  0  0  0  0  0  0  0  0  0
  1  2  1  0
  2  3  1  0
  3  4  2  0
  4  5  1  0
  5  6  2  0
  6  7  1  0
  8  7  1  1
  8  9  1  0
  9 10  1  0
 10 11  2  0
 10 12  1  0
 12 13  2  0
 13 14  1  0
 14 15  1  0
 14 16  2  0
 16 17  1  0
 17 18  2  0
 17 19  1  0
 19 20  1  0
 20 21  1  0
 21 22  1  0
 22 23  1  0
 23 24  1  0
 24 25  1  0
 25 26  2  0
  8 27  1  0
 27 28  1  6
 27 29  1  0
 29 30  1  0
 30 31  1  0
 31 32  1  0
 32 33  2  0
 33 34  1  0
 34 35  2  0
 35 36  1  0
 36 37  2  0
 34 38  1  0
 38 39  1  0
 38 40  1  0
 18 12  1  0
 25  3  1  0
 26  6  1  0
 37 32  1  0
M  END
$$$$
