
     RDKit          3D

 40 43  0  0  0  0  0  0  0  0999 V2000
  -23.9058  -40.2320   -3.8107 C   0  0  0  0  0  0  0  0  0  0  0  0
  -23.1511  -40.9500   -4.7471 O   0  0  0  0  0  0  0  0  0  0  0  0
  -22.2651  -40.2618   -5.5912 C   0  0  0  0  0  0  0  0  0  0  0  0
  -21.5855  -39.2138   -5.0248 C   0  0  0  0  0  0  0  0  0  0  0  0
  -20.7246  -38.5464   -5.8567 C   0  0  0  0  0  0  0  0  0  0  0  0
  -20.5151  -38.8755   -7.2150 C   0  0  0  0  0  0  0  0  0  0  0  0
  -19.4415  -37.9666   -7.7574 C   0  0  0  0  0  0  0  0  0  0  0  0
  -18.2523  -38.6934   -8.3738 C   0  0  2  0  0  0  0  0  0  0  0  0
  -18.5465  -40.0980   -8.2444 N   0  0  0  0  0  0  0  0  0  0  0  0
  -18.5420  -41.3061   -8.9200 C   0  0  0  0  0  0  0  0  0  0  0  0
  -18.6509  -41.2171  -10.2639 O   0  0  0  0  0  0  0  0  0  0  0  0
  -18.4506  -42.7552   -8.5490 C   0  0  0  0  0  0  0  0  0  0  0  0
  -17.5335  -43.4425   -9.3804 C   0  0  0  0  0  0  0  0  0  0  0  0
  -17.3245  -44.8064   -9.3172 C   0  0  0  0  0  0  0  0  0  0  0  0
  -16.1706  -45.5987  -10.3703 Cl  0  0  0  0  0  0  0  0  0  0  0  0
  -18.0490  -45.4379   -8.4178 N   0  0  0  0  0  0  0  0  0  0  0  0
  -18.9682  -44.8389   -7.5657 C   0  0  0  0  0  0  0  0  0  0  0  0
  -19.1729  -43.4938   -7.6224 C   0  0  0  0  0  0  0  0  0  0  0  0
  -19.5831  -45.8774   -6.7827 N   0  0  0  0  0  0  0  0  0  0  0  0
  -20.9996  -46.1345   -6.5765 C   0  0  0  0  0  0  0  0  0  0  0  0
  -21.8632  -45.2978   -7.5122 C   0  0  0  0  0  0  0  0  0  0  0  0
  -22.4877  -44.0983   -6.8709 C   0  0  0  0  0  0  0  0  0  0  0  0
  -22.6990  -42.9561   -7.8411 C   0  0  0  0  0  0  0  0  0  0  0  0
  -22.8801  -41.7171   -7.2611 O   0  0  0  0  0  0  0  0  0  0  0  0
  -22.0790  -40.6184   -6.9494 C   0  0  0  0  0  0  0  0  0  0  0  0
  -21.2036  -39.9184   -7.7632 C   0  0  0  0  0  0  0  0  0  0  0  0
  -16.9659  -38.3113   -7.6792 C   0  0  2  0  0  0  0  0  0  0  0  0
  -16.9225  -36.8490   -7.7370 O   0  0  0  0  0  0  0  0  0  0  0  0
  -15.6916  -38.6589   -8.3314 C   0  0  0  0  0  0  0  0  0  0  0  0
  -14.6455  -37.7369   -8.4505 N   0  0  0  0  0  0  0  0  0  0  0  0
  -14.3008  -37.2877   -9.7743 C   0  0  0  0  0  0  0  0  0  0  0  0
  -14.9649  -38.0356  -10.8421 C   0  0  0  0  0  0  0  0  0  0  0  0
  -14.3095  -38.9877  -11.5840 C   0  0  0  0  0  0  0  0  0  0  0  0
  -14.9608  -39.6845  -12.6085 C   0  0  0  0  0  0  0  0  0  0  0  0
  -16.2862  -39.3912  -12.8589 C   0  0  0  0  0  0  0  0  0  0  0  0
  -16.9634  -38.4400  -12.1271 C   0  0  0  0  0  0  0  0  0  0  0  0
  -16.2832  -37.7788  -11.1281 C   0  0  0  0  0  0  0  0  0  0  0  0
  -14.2947  -40.7266  -13.4306 C   0  0  0  0  0  0  0  0  0  0  0  0
  -14.1525  -42.0278  -12.6287 C   0  0  0  0  0  0  0  0  0  0  0  0
  -12.8604  -40.2853  -13.7431 C   0  0  0  0  0  0  0  0  0  0  0  0
  1  2  1  0
  2  3  1  0
  3  4  2  0
  4  5  1  0
  5  6  2  0
  6  7  1  0
  8  7  1  1
  8  9  1  0
  9 10  1  0
 10 11  2  0
 10 12  1  0
 12 13  2  0
 13 14  1  0
 14 15  1  0
 14 16  2  0
 16 17  1  0
 17 18  2  0
 17 19  1  0
 19 20  1  0
 20 21  1  0
 21 22  1  0
 22 23  1  0
 23 24  1  0
 24 25  1  0
 25 26  2  0
  8 27  1  0
 27 28  1  6
 27 29  1  0
 29 30  1  0
 30 31  1  0
 31 32  1  0
 32 33  2  0
 33 34  1  0
 34 35  2  0
 35 36  1  0
 36 37  2  0
 34 38  1  0
 38 39  1  0
 38 40  1  0
 18 12  1  0
 25  3  1  0
 26  6  1  0
 37 32  1  0
M  END
$$$$
