
     RDKit          3D

 40 43  0  0  0  0  0  0  0  0999 V2000
  -11.1243  -36.4760  -12.0646 C   0  0  0  0  0  0  0  0  0  0  0  0
  -12.0147  -37.5573  -12.0573 O   0  0  0  0  0  0  0  0  0  0  0  0
  -12.9902  -37.6395  -11.0510 C   0  0  0  0  0  0  0  0  0  0  0  0
  -14.0218  -36.7399  -11.1375 C   0  0  0  0  0  0  0  0  0  0  0  0
  -14.9681  -36.8260  -10.1498 C   0  0  0  0  0  0  0  0  0  0  0  0
  -14.9299  -37.7605   -9.0903 C   0  0  0  0  0  0  0  0  0  0  0  0
  -16.1819  -37.5889   -8.2683 C   0  0  0  0  0  0  0  0  0  0  0  0
  -17.0092  -38.8585   -8.1070 C   0  0  2  0  0  0  0  0  0  0  0  0
  -16.2922  -39.8823   -8.8238 N   0  0  0  0  0  0  0  0  0  0  0  0
  -15.8431  -41.1896   -8.7508 C   0  0  0  0  0  0  0  0  0  0  0  0
  -15.6407  -41.6622   -7.5012 O   0  0  0  0  0  0  0  0  0  0  0  0
  -15.4981  -42.2734   -9.7266 C   0  0  0  0  0  0  0  0  0  0  0  0
  -16.0612  -43.5132   -9.3392 C   0  0  0  0  0  0  0  0  0  0  0  0
  -15.8250  -44.6981  -10.0088 C   0  0  0  0  0  0  0  0  0  0  0  0
  -16.5563  -46.2005   -9.4830 Cl  0  0  0  0  0  0  0  0  0  0  0  0
  -15.0252  -44.5976  -11.0493 N   0  0  0  0  0  0  0  0  0  0  0  0
  -14.4335  -43.4221  -11.4941 C   0  0  0  0  0  0  0  0  0  0  0  0
  -14.6684  -42.2517  -10.8389 C   0  0  0  0  0  0  0  0  0  0  0  0
  -13.5948  -43.7496  -12.6162 N   0  0  0  0  0  0  0  0  0  0  0  0
  -12.1975  -43.4074  -12.8296 C   0  0  0  0  0  0  0  0  0  0  0  0
  -11.5640  -42.8268  -11.5714 C   0  0  0  0  0  0  0  0  0  0  0  0
  -11.4232  -41.3368  -11.5805 C   0  0  0  0  0  0  0  0  0  0  0  0
  -11.4993  -40.7306  -10.1958 C   0  0  0  0  0  0  0  0  0  0  0  0
  -11.7830  -39.3807  -10.1590 O   0  0  0  0  0  0  0  0  0  0  0  0
  -12.9209  -38.5893  -10.0023 C   0  0  0  0  0  0  0  0  0  0  0  0
  -13.8931  -38.6450   -9.0173 C   0  0  0  0  0  0  0  0  0  0  0  0
  -18.4103  -38.6619   -8.6378 C   0  0  2  0  0  0  0  0  0  0  0  0
  -19.1404  -38.0076   -7.5505 O   0  0  0  0  0  0  0  0  0  0  0  0
  -19.2445  -39.8551   -8.8621 C   0  0  0  0  0  0  0  0  0  0  0  0
  -20.6109  -39.8702   -8.5599 N   0  0  0  0  0  0  0  0  0  0  0  0
  -21.1148  -38.8300   -7.7012 C   0  0  0  0  0  0  0  0  0  0  0  0
  -22.1844  -39.2714   -6.8059 C   0  0  0  0  0  0  0  0  0  0  0  0
  -21.9256  -39.9009   -5.6129 C   0  0  0  0  0  0  0  0  0  0  0  0
  -22.9643  -40.3247   -4.7757 C   0  0  0  0  0  0  0  0  0  0  0  0
  -24.2643  -40.0946   -5.1788 C   0  0  0  0  0  0  0  0  0  0  0  0
  -24.5472  -39.4649   -6.3713 C   0  0  0  0  0  0  0  0  0  0  0  0
  -23.4939  -39.0644   -7.1638 C   0  0  0  0  0  0  0  0  0  0  0  0
  -22.7315  -41.0018   -3.4746 C   0  0  0  0  0  0  0  0  0  0  0  0
  -21.8893  -40.1093   -2.5525 C   0  0  0  0  0  0  0  0  0  0  0  0
  -21.8863  -42.2601   -3.7023 C   0  0  0  0  0  0  0  0  0  0  0  0
  1  2  1  0
  2  3  1  0
  3  4  2  0
  4  5  1  0
  5  6  2  0
  6  7  1  0
  8  7  1  6
  8  9  1  0
  9 10  1  0
 10 11  2  0
 10 12  1  0
 12 13  2  0
 13 14  1  0
 14 15  1  0
 14 16  2  0
 16 17  1  0
 17 18  2  0
 17 19  1  0
 19 20  1  0
 20 21  1  0
 21 22  1  0
 22 23  1  0
 23 24  1  0
 24 25  1  0
 25 26  2  0
  8 27  1  0
 27 28  1  1
 27 29  1  0
 29 30  1  0
 30 31  1  0
 31 32  1  0
 32 33  2  0
 33 34  1  0
 34 35  2  0
 35 36  1  0
 36 37  2  0
 34 38  1  0
 38 39  1  0
 38 40  1  0
 18 12  1  0
 25  3  1  0
 26  6  1  0
 37 32  1  0
M  END
$$$$
