
     RDKit          3D

 40 43  0  0  0  0  0  0  0  0999 V2000
  -24.5445  -38.3528   -6.6223 C   0  0  0  0  0  0  0  0  0  0  0  0
  -23.4561  -39.0873   -6.1344 O   0  0  0  0  0  0  0  0  0  0  0  0
  -22.1983  -38.9396   -6.7404 C   0  0  0  0  0  0  0  0  0  0  0  0
  -21.3602  -38.0155   -6.1708 C   0  0  0  0  0  0  0  0  0  0  0  0
  -20.1356  -37.8765   -6.7702 C   0  0  0  0  0  0  0  0  0  0  0  0
  -19.7155  -38.6114   -7.9018 C   0  0  0  0  0  0  0  0  0  0  0  0
  -18.2882  -38.2318   -8.2041 C   0  0  0  0  0  0  0  0  0  0  0  0
  -17.3198  -39.4076   -8.2525 C   0  0  2  0  0  0  0  0  0  0  0  0
  -18.1172  -40.5780   -7.9871 N   0  0  0  0  0  0  0  0  0  0  0  0
  -18.3694  -41.8742   -8.4020 C   0  0  0  0  0  0  0  0  0  0  0  0
  -18.0906  -42.1305   -9.6991 O   0  0  0  0  0  0  0  0  0  0  0  0
  -18.8982  -43.1292   -7.7763 C   0  0  0  0  0  0  0  0  0  0  0  0
  -18.1052  -44.2501   -8.1215 C   0  0  0  0  0  0  0  0  0  0  0  0
  -18.4189  -45.5448   -7.7567 C   0  0  0  0  0  0  0  0  0  0  0  0
  -17.3934  -46.8906   -8.2102 Cl  0  0  0  0  0  0  0  0  0  0  0  0
  -19.5256  -45.6712   -7.0554 N   0  0  0  0  0  0  0  0  0  0  0  0
  -20.3573  -44.6251   -6.6763 C   0  0  0  0  0  0  0  0  0  0  0  0
  -20.0481  -43.3471   -7.0305 C   0  0  0  0  0  0  0  0  0  0  0  0
  -21.4804  -45.1885   -5.9757 N   0  0  0  0  0  0  0  0  0  0  0  0
  -22.8977  -44.9640   -6.2125 C   0  0  0  0  0  0  0  0  0  0  0  0
  -23.1357  -44.2063   -7.5127 C   0  0  0  0  0  0  0  0  0  0  0  0
  -23.4347  -42.7507   -7.3349 C   0  0  0  0  0  0  0  0  0  0  0  0
  -22.9690  -41.9079   -8.5025 C   0  0  0  0  0  0  0  0  0  0  0  0
  -22.8398  -40.5592   -8.2405 O   0  0  0  0  0  0  0  0  0  0  0  0
  -21.8092  -39.6931   -7.8751 C   0  0  0  0  0  0  0  0  0  0  0  0
  -20.5645  -39.5234   -8.4586 C   0  0  0  0  0  0  0  0  0  0  0  0
  -16.2063  -39.2328   -7.2460 C   0  0  2  0  0  0  0  0  0  0  0  0
  -15.7401  -37.8572   -7.4302 O   0  0  0  0  0  0  0  0  0  0  0  0
  -14.9569  -39.9857   -7.4510 C   0  0  0  0  0  0  0  0  0  0  0  0
  -14.6839  -40.6542   -8.6498 N   0  0  0  0  0  0  0  0  0  0  0  0
  -13.5705  -40.1874   -9.4344 C   0  0  0  0  0  0  0  0  0  0  0  0
  -13.9547  -39.3057  -10.5368 C   0  0  0  0  0  0  0  0  0  0  0  0
  -13.8698  -37.9381  -10.4424 C   0  0  0  0  0  0  0  0  0  0  0  0
  -14.2528  -37.1121  -11.5056 C   0  0  0  0  0  0  0  0  0  0  0  0
  -14.7214  -37.7069  -12.6598 C   0  0  0  0  0  0  0  0  0  0  0  0
  -14.8150  -39.0767  -12.7766 C   0  0  0  0  0  0  0  0  0  0  0  0
  -14.4269  -39.8511  -11.7053 C   0  0  0  0  0  0  0  0  0  0  0  0
  -14.1709  -35.6303  -11.4510 C   0  0  0  0  0  0  0  0  0  0  0  0
  -14.0865  -35.1545   -9.9940 C   0  0  0  0  0  0  0  0  0  0  0  0
  -15.4713  -35.0306  -11.9976 C   0  0  0  0  0  0  0  0  0  0  0  0
  1  2  1  0
  2  3  1  0
  3  4  2  0
  4  5  1  0
  5  6  2  0
  6  7  1  0
  8  7  1  1
  8  9  1  0
  9 10  1  0
 10 11  2  0
 10 12  1  0
 12 13  2  0
 13 14  1  0
 14 15  1  0
 14 16  2  0
 16 17  1  0
 17 18  2  0
 17 19  1  0
 19 20  1  0
 20 21  1  0
 21 22  1  0
 22 23  1  0
 23 24  1  0
 24 25  1  0
 25 26  2  0
  8 27  1  0
 27 28  1  6
 27 29  1  0
 29 30  1  0
 30 31  1  0
 31 32  1  0
 32 33  2  0
 33 34  1  0
 34 35  2  0
 35 36  1  0
 36 37  2  0
 34 38  1  0
 38 39  1  0
 38 40  1  0
 18 12  1  0
 25  3  1  0
 26  6  1  0
 37 32  1  0
M  END
$$$$
