
     RDKit          3D

 40 43  0  0  0  0  0  0  0  0999 V2000
  -23.4958  -40.4465   -3.2646 C   0  0  0  0  0  0  0  0  0  0  0  0
  -23.0723  -41.1669   -4.3888 O   0  0  0  0  0  0  0  0  0  0  0  0
  -22.1758  -40.5719   -5.2906 C   0  0  0  0  0  0  0  0  0  0  0  0
  -21.3077  -39.6530   -4.7587 C   0  0  0  0  0  0  0  0  0  0  0  0
  -20.4378  -39.0757   -5.6467 C   0  0  0  0  0  0  0  0  0  0  0  0
  -20.3974  -39.3719   -7.0279 C   0  0  0  0  0  0  0  0  0  0  0  0
  -19.2582  -38.5975   -7.6404 C   0  0  0  0  0  0  0  0  0  0  0  0
  -18.2426  -39.4543   -8.3868 C   0  0  2  0  0  0  0  0  0  0  0  0
  -18.7198  -40.8090   -8.2729 N   0  0  0  0  0  0  0  0  0  0  0  0
  -18.9456  -41.9761   -8.9821 C   0  0  0  0  0  0  0  0  0  0  0  0
  -19.1589  -41.8154  -10.3067 O   0  0  0  0  0  0  0  0  0  0  0  0
  -19.0276  -43.4386   -8.6652 C   0  0  0  0  0  0  0  0  0  0  0  0
  -18.2937  -44.2095   -9.5988 C   0  0  0  0  0  0  0  0  0  0  0  0
  -18.2749  -45.5906   -9.5966 C   0  0  0  0  0  0  0  0  0  0  0  0
  -17.3418  -46.4886  -10.7762 Cl  0  0  0  0  0  0  0  0  0  0  0  0
  -18.9992  -46.1541   -8.6530 N   0  0  0  0  0  0  0  0  0  0  0  0
  -19.7459  -45.4712   -7.7012 C   0  0  0  0  0  0  0  0  0  0  0  0
  -19.7626  -44.1095   -7.6980 C   0  0  0  0  0  0  0  0  0  0  0  0
  -20.4299  -46.4476   -6.8960 N   0  0  0  0  0  0  0  0  0  0  0  0
  -21.8448  -46.5153   -6.5664 C   0  0  0  0  0  0  0  0  0  0  0  0
  -22.6606  -45.5280   -7.3918 C   0  0  0  0  0  0  0  0  0  0  0  0
  -23.0503  -44.2825   -6.6592 C   0  0  0  0  0  0  0  0  0  0  0  0
  -23.1827  -43.0815   -7.5705 C   0  0  0  0  0  0  0  0  0  0  0  0
  -23.1350  -41.8554   -6.9391 O   0  0  0  0  0  0  0  0  0  0  0  0
  -22.1625  -40.8922   -6.6704 C   0  0  0  0  0  0  0  0  0  0  0  0
  -21.2721  -40.2854   -7.5408 C   0  0  0  0  0  0  0  0  0  0  0  0
  -16.8589  -39.2835   -7.8039 C   0  0  2  0  0  0  0  0  0  0  0  0
  -16.7483  -37.8557   -7.4995 O   0  0  0  0  0  0  0  0  0  0  0  0
  -15.6997  -39.4748   -8.6925 C   0  0  0  0  0  0  0  0  0  0  0  0
  -14.3904  -39.2282   -8.2643 N   0  0  0  0  0  0  0  0  0  0  0  0
  -13.8543  -37.9102   -8.4852 C   0  0  0  0  0  0  0  0  0  0  0  0
  -13.8508  -37.5032   -9.8905 C   0  0  0  0  0  0  0  0  0  0  0  0
  -13.9443  -36.1865  -10.2701 C   0  0  0  0  0  0  0  0  0  0  0  0
  -13.9497  -35.8194  -11.6209 C   0  0  0  0  0  0  0  0  0  0  0  0
  -13.8588  -36.8175  -12.5701 C   0  0  0  0  0  0  0  0  0  0  0  0
  -13.7641  -38.1447  -12.2121 C   0  0  0  0  0  0  0  0  0  0  0  0
  -13.7621  -38.4604  -10.8711 C   0  0  0  0  0  0  0  0  0  0  0  0
  -14.0413  -34.4091  -12.0771 C   0  0  0  0  0  0  0  0  0  0  0  0
  -12.6377  -33.8294  -12.3016 C   0  0  0  0  0  0  0  0  0  0  0  0
  -14.6581  -33.5554  -10.9635 C   0  0  0  0  0  0  0  0  0  0  0  0
  1  2  1  0
  2  3  1  0
  3  4  2  0
  4  5  1  0
  5  6  2  0
  6  7  1  0
  8  7  1  1
  8  9  1  0
  9 10  1  0
 10 11  2  0
 10 12  1  0
 12 13  2  0
 13 14  1  0
 14 15  1  0
 14 16  2  0
 16 17  1  0
 17 18  2  0
 17 19  1  0
 19 20  1  0
 20 21  1  0
 21 22  1  0
 22 23  1  0
 23 24  1  0
 24 25  1  0
 25 26  2  0
  8 27  1  0
 27 28  1  6
 27 29  1  0
 29 30  1  0
 30 31  1  0
 31 32  1  0
 32 33  2  0
 33 34  1  0
 34 35  2  0
 35 36  1  0
 36 37  2  0
 34 38  1  0
 38 39  1  0
 38 40  1  0
 18 12  1  0
 25  3  1  0
 26  6  1  0
 37 32  1  0
M  END
$$$$
