
     RDKit          3D

 40 43  0  0  0  0  0  0  0  0999 V2000
  -23.8736  -38.6539   -4.4893 C   0  0  0  0  0  0  0  0  0  0  0  0
  -22.7612  -39.4616   -4.7580 O   0  0  0  0  0  0  0  0  0  0  0  0
  -22.0261  -39.2520   -5.9356 C   0  0  0  0  0  0  0  0  0  0  0  0
  -21.2040  -38.1543   -5.9449 C   0  0  0  0  0  0  0  0  0  0  0  0
  -20.4921  -37.9563   -7.0992 C   0  0  0  0  0  0  0  0  0  0  0  0
  -20.5646  -38.7968   -8.2330 C   0  0  0  0  0  0  0  0  0  0  0  0
  -19.5775  -38.2923   -9.2546 C   0  0  0  0  0  0  0  0  0  0  0  0
  -18.5637  -39.3312   -9.7186 C   0  0  2  0  0  0  0  0  0  0  0  0
  -18.8891  -40.5379   -9.0015 N   0  0  0  0  0  0  0  0  0  0  0  0
  -19.0691  -41.9035   -9.1385 C   0  0  0  0  0  0  0  0  0  0  0  0
  -19.4325  -42.3176  -10.3723 O   0  0  0  0  0  0  0  0  0  0  0  0
  -18.9716  -43.1045   -8.2474 C   0  0  0  0  0  0  0  0  0  0  0  0
  -18.2645  -44.1568   -8.8775 C   0  0  0  0  0  0  0  0  0  0  0  0
  -18.1078  -45.4098   -8.3175 C   0  0  0  0  0  0  0  0  0  0  0  0
  -17.2161  -46.6700   -9.1452 Cl  0  0  0  0  0  0  0  0  0  0  0  0
  -18.6713  -45.5651   -7.1382 N   0  0  0  0  0  0  0  0  0  0  0  0
  -19.3805  -44.5857   -6.4543 C   0  0  0  0  0  0  0  0  0  0  0  0
  -19.5325  -43.3482   -7.0017 C   0  0  0  0  0  0  0  0  0  0  0  0
  -19.8771  -45.1717   -5.2378 N   0  0  0  0  0  0  0  0  0  0  0  0
  -21.2367  -45.1650   -4.7215 C   0  0  0  0  0  0  0  0  0  0  0  0
  -22.2275  -44.6502   -5.7582 C   0  0  0  0  0  0  0  0  0  0  0  0
  -22.6621  -43.2335   -5.5489 C   0  0  0  0  0  0  0  0  0  0  0  0
  -23.0068  -42.5270   -6.8422 C   0  0  0  0  0  0  0  0  0  0  0  0
  -23.0170  -41.1487   -6.7755 O   0  0  0  0  0  0  0  0  0  0  0  0
  -22.1230  -40.1150   -7.0547 C   0  0  0  0  0  0  0  0  0  0  0  0
  -21.3919  -39.8819   -8.2078 C   0  0  0  0  0  0  0  0  0  0  0  0
  -17.1514  -38.8671   -9.4477 C   0  0  2  0  0  0  0  0  0  0  0  0
  -16.9864  -37.6589  -10.2580 O   0  0  0  0  0  0  0  0  0  0  0  0
  -16.0384  -39.6953   -9.9432 C   0  0  0  0  0  0  0  0  0  0  0  0
  -14.9544  -40.0420   -9.1288 N   0  0  0  0  0  0  0  0  0  0  0  0
  -13.6395  -39.6541   -9.5690 C   0  0  0  0  0  0  0  0  0  0  0  0
  -13.6466  -38.7213  -10.6960 C   0  0  0  0  0  0  0  0  0  0  0  0
  -13.7489  -37.3630  -10.5197 C   0  0  0  0  0  0  0  0  0  0  0  0
  -13.7644  -36.4885  -11.6126 C   0  0  0  0  0  0  0  0  0  0  0  0
  -13.6742  -37.0255  -12.8811 C   0  0  0  0  0  0  0  0  0  0  0  0
  -13.5707  -38.3848  -13.0814 C   0  0  0  0  0  0  0  0  0  0  0  0
  -13.5590  -39.2082  -11.9770 C   0  0  0  0  0  0  0  0  0  0  0  0
  -13.8658  -35.0138  -11.4693 C   0  0  0  0  0  0  0  0  0  0  0  0
  -14.3161  -34.3794  -12.7926 C   0  0  0  0  0  0  0  0  0  0  0  0
  -12.4732  -34.4344  -11.1961 C   0  0  0  0  0  0  0  0  0  0  0  0
  1  2  1  0
  2  3  1  0
  3  4  2  0
  4  5  1  0
  5  6  2  0
  6  7  1  0
  8  7  1  1
  8  9  1  0
  9 10  1  0
 10 11  2  0
 10 12  1  0
 12 13  2  0
 13 14  1  0
 14 15  1  0
 14 16  2  0
 16 17  1  0
 17 18  2  0
 17 19  1  0
 19 20  1  0
 20 21  1  0
 21 22  1  0
 22 23  1  0
 23 24  1  0
 24 25  1  0
 25 26  2  0
  8 27  1  0
 27 28  1  6
 27 29  1  0
 29 30  1  0
 30 31  1  0
 31 32  1  0
 32 33  2  0
 33 34  1  0
 34 35  2  0
 35 36  1  0
 36 37  2  0
 34 38  1  0
 38 39  1  0
 38 40  1  0
 18 12  1  0
 25  3  1  0
 26  6  1  0
 37 32  1  0
M  END
$$$$
