
     RDKit          3D

 40 43  0  0  0  0  0  0  0  0999 V2000
  -11.9393  -35.2632  -12.9902 C   0  0  0  0  0  0  0  0  0  0  0  0
  -12.7541  -36.3956  -12.8646 O   0  0  0  0  0  0  0  0  0  0  0  0
  -13.1593  -36.8144  -11.5873 C   0  0  0  0  0  0  0  0  0  0  0  0
  -13.8774  -35.9042  -10.8547 C   0  0  0  0  0  0  0  0  0  0  0  0
  -14.2667  -36.3208   -9.6084 C   0  0  0  0  0  0  0  0  0  0  0  0
  -13.9731  -37.5926   -9.0668 C   0  0  0  0  0  0  0  0  0  0  0  0
  -14.6405  -37.6935   -7.7187 C   0  0  0  0  0  0  0  0  0  0  0  0
  -15.5760  -38.8869   -7.5661 C   0  0  2  0  0  0  0  0  0  0  0  0
  -15.5205  -39.5867   -8.8244 N   0  0  0  0  0  0  0  0  0  0  0  0
  -15.4051  -40.8401   -9.4002 C   0  0  0  0  0  0  0  0  0  0  0  0
  -14.7768  -41.7676   -8.6447 O   0  0  0  0  0  0  0  0  0  0  0  0
  -15.8009  -41.4778  -10.6974 C   0  0  0  0  0  0  0  0  0  0  0  0
  -16.3998  -42.7433  -10.4872 C   0  0  0  0  0  0  0  0  0  0  0  0
  -16.7746  -43.5872  -11.5145 C   0  0  0  0  0  0  0  0  0  0  0  0
  -17.5171  -45.1402  -11.1899 Cl  0  0  0  0  0  0  0  0  0  0  0  0
  -16.5320  -43.1301  -12.7248 N   0  0  0  0  0  0  0  0  0  0  0  0
  -15.9493  -41.9030  -13.0155 C   0  0  0  0  0  0  0  0  0  0  0  0
  -15.5832  -41.0669  -12.0050 C   0  0  0  0  0  0  0  0  0  0  0  0
  -15.8097  -41.8105  -14.4444 N   0  0  0  0  0  0  0  0  0  0  0  0
  -14.6227  -41.4781  -15.2163 C   0  0  0  0  0  0  0  0  0  0  0  0
  -13.3738  -41.4587  -14.3437 C   0  0  0  0  0  0  0  0  0  0  0  0
  -12.9097  -40.0892  -13.9580 C   0  0  0  0  0  0  0  0  0  0  0  0
  -12.2089  -40.0620  -12.6168 C   0  0  0  0  0  0  0  0  0  0  0  0
  -12.1222  -38.8193  -12.0230 O   0  0  0  0  0  0  0  0  0  0  0  0
  -12.8474  -38.0977  -11.0748 C   0  0  0  0  0  0  0  0  0  0  0  0
  -13.2531  -38.4840   -9.8081 C   0  0  0  0  0  0  0  0  0  0  0  0
  -16.9767  -38.4353   -7.2232 C   0  0  2  0  0  0  0  0  0  0  0  0
  -16.8001  -37.2151   -6.4336 O   0  0  0  0  0  0  0  0  0  0  0  0
  -17.7679  -39.2618   -6.2952 C   0  0  0  0  0  0  0  0  0  0  0  0
  -18.3323  -40.4808   -6.6874 N   0  0  0  0  0  0  0  0  0  0  0  0
  -19.0043  -41.2589   -5.6793 C   0  0  0  0  0  0  0  0  0  0  0  0
  -20.4485  -41.0315   -5.6247 C   0  0  0  0  0  0  0  0  0  0  0  0
  -21.0938  -40.2137   -6.5199 C   0  0  0  0  0  0  0  0  0  0  0  0
  -22.4753  -40.0014   -6.4434 C   0  0  0  0  0  0  0  0  0  0  0  0
  -23.1800  -40.6367   -5.4407 C   0  0  0  0  0  0  0  0  0  0  0  0
  -22.5533  -41.4614   -4.5320 C   0  0  0  0  0  0  0  0  0  0  0  0
  -21.1922  -41.6419   -4.6449 C   0  0  0  0  0  0  0  0  0  0  0  0
  -23.2156  -39.1325   -7.3934 C   0  0  0  0  0  0  0  0  0  0  0  0
  -22.7105  -39.3570   -8.8255 C   0  0  0  0  0  0  0  0  0  0  0  0
  -22.9080  -37.6636   -7.0816 C   0  0  0  0  0  0  0  0  0  0  0  0
  1  2  1  0
  2  3  1  0
  3  4  2  0
  4  5  1  0
  5  6  2  0
  6  7  1  0
  8  7  1  6
  8  9  1  0
  9 10  1  0
 10 11  2  0
 10 12  1  0
 12 13  2  0
 13 14  1  0
 14 15  1  0
 14 16  2  0
 16 17  1  0
 17 18  2  0
 17 19  1  0
 19 20  1  0
 20 21  1  0
 21 22  1  0
 22 23  1  0
 23 24  1  0
 24 25  1  0
 25 26  2  0
  8 27  1  0
 27 28  1  1
 27 29  1  0
 29 30  1  0
 30 31  1  0
 31 32  1  0
 32 33  2  0
 33 34  1  0
 34 35  2  0
 35 36  1  0
 36 37  2  0
 34 38  1  0
 38 39  1  0
 38 40  1  0
 18 12  1  0
 25  3  1  0
 26  6  1  0
 37 32  1  0
M  END
$$$$
