
     RDKit          3D

 40 43  0  0  0  0  0  0  0  0999 V2000
  -24.8276  -39.6360   -4.8514 C   0  0  0  0  0  0  0  0  0  0  0  0
  -23.8806  -40.5698   -5.2912 O   0  0  0  0  0  0  0  0  0  0  0  0
  -22.7349  -40.1223   -5.9680 C   0  0  0  0  0  0  0  0  0  0  0  0
  -22.0290  -39.1173   -5.3577 C   0  0  0  0  0  0  0  0  0  0  0  0
  -20.9134  -38.6854   -6.0266 C   0  0  0  0  0  0  0  0  0  0  0  0
  -20.4768  -39.2067   -7.2654 C   0  0  0  0  0  0  0  0  0  0  0  0
  -19.1784  -38.5312   -7.6269 C   0  0  0  0  0  0  0  0  0  0  0  0
  -18.0208  -39.4879   -7.8863 C   0  0  2  0  0  0  0  0  0  0  0  0
  -18.5619  -40.8105   -7.7020 N   0  0  0  0  0  0  0  0  0  0  0  0
  -18.6119  -42.0819   -8.2470 C   0  0  0  0  0  0  0  0  0  0  0  0
  -18.4166  -42.1463   -9.5825 O   0  0  0  0  0  0  0  0  0  0  0  0
  -18.8402  -43.4722   -7.7361 C   0  0  0  0  0  0  0  0  0  0  0  0
  -17.8927  -44.3787   -8.2698 C   0  0  0  0  0  0  0  0  0  0  0  0
  -17.9283  -45.7400   -8.0379 C   0  0  0  0  0  0  0  0  0  0  0  0
  -16.7227  -46.8104   -8.7229 Cl  0  0  0  0  0  0  0  0  0  0  0  0
  -18.9209  -46.1473   -7.2755 N   0  0  0  0  0  0  0  0  0  0  0  0
  -19.8894  -45.3246   -6.7143 C   0  0  0  0  0  0  0  0  0  0  0  0
  -19.8541  -43.9817   -6.9372 C   0  0  0  0  0  0  0  0  0  0  0  0
  -20.8184  -46.1617   -6.0028 N   0  0  0  0  0  0  0  0  0  0  0  0
  -22.2689  -46.1907   -6.1045 C   0  0  0  0  0  0  0  0  0  0  0  0
  -22.7648  -45.3643   -7.2847 C   0  0  0  0  0  0  0  0  0  0  0  0
  -23.3060  -44.0191   -6.9142 C   0  0  0  0  0  0  0  0  0  0  0  0
  -23.1161  -42.9880   -8.0057 C   0  0  0  0  0  0  0  0  0  0  0  0
  -23.2108  -41.6735   -7.5966 O   0  0  0  0  0  0  0  0  0  0  0  0
  -22.3254  -40.6674   -7.2097 C   0  0  0  0  0  0  0  0  0  0  0  0
  -21.1944  -40.2032   -7.8608 C   0  0  0  0  0  0  0  0  0  0  0  0
  -16.8667  -39.2060   -6.9526 C   0  0  2  0  0  0  0  0  0  0  0  0
  -16.5566  -37.7886   -7.1487 O   0  0  0  0  0  0  0  0  0  0  0  0
  -15.5632  -39.8252   -7.2486 C   0  0  0  0  0  0  0  0  0  0  0  0
  -14.4218  -39.0585   -7.5090 N   0  0  0  0  0  0  0  0  0  0  0  0
  -13.7626  -39.2534   -8.7741 C   0  0  0  0  0  0  0  0  0  0  0  0
  -14.5354  -38.7764   -9.9212 C   0  0  0  0  0  0  0  0  0  0  0  0
  -14.9651  -37.4758  -10.0229 C   0  0  0  0  0  0  0  0  0  0  0  0
  -15.7127  -37.0426  -11.1242 C   0  0  0  0  0  0  0  0  0  0  0  0
  -16.0110  -37.9583  -12.1130 C   0  0  0  0  0  0  0  0  0  0  0  0
  -15.5902  -39.2679  -12.0318 C   0  0  0  0  0  0  0  0  0  0  0  0
  -14.8567  -39.6506  -10.9303 C   0  0  0  0  0  0  0  0  0  0  0  0
  -16.1914  -35.6454  -11.2797 C   0  0  0  0  0  0  0  0  0  0  0  0
  -15.2407  -34.6738  -10.5667 C   0  0  0  0  0  0  0  0  0  0  0  0
  -17.5391  -35.4892  -10.5665 C   0  0  0  0  0  0  0  0  0  0  0  0
  1  2  1  0
  2  3  1  0
  3  4  2  0
  4  5  1  0
  5  6  2  0
  6  7  1  0
  8  7  1  1
  8  9  1  0
  9 10  1  0
 10 11  2  0
 10 12  1  0
 12 13  2  0
 13 14  1  0
 14 15  1  0
 14 16  2  0
 16 17  1  0
 17 18  2  0
 17 19  1  0
 19 20  1  0
 20 21  1  0
 21 22  1  0
 22 23  1  0
 23 24  1  0
 24 25  1  0
 25 26  2  0
  8 27  1  0
 27 28  1  6
 27 29  1  0
 29 30  1  0
 30 31  1  0
 31 32  1  0
 32 33  2  0
 33 34  1  0
 34 35  2  0
 35 36  1  0
 36 37  2  0
 34 38  1  0
 38 39  1  0
 38 40  1  0
 18 12  1  0
 25  3  1  0
 26  6  1  0
 37 32  1  0
M  END
$$$$
