
     RDKit          3D

 40 43  0  0  0  0  0  0  0  0999 V2000
  -11.1619  -37.9798  -13.5224 C   0  0  0  0  0  0  0  0  0  0  0  0
  -12.2468  -38.7833  -13.1490 O   0  0  0  0  0  0  0  0  0  0  0  0
  -12.6804  -38.7782  -11.8137 C   0  0  0  0  0  0  0  0  0  0  0  0
  -12.9448  -37.5466  -11.2713 C   0  0  0  0  0  0  0  0  0  0  0  0
  -13.3653  -37.5511   -9.9668 C   0  0  0  0  0  0  0  0  0  0  0  0
  -13.5311  -38.7187   -9.1881 C   0  0  0  0  0  0  0  0  0  0  0  0
  -14.0818  -38.3122   -7.8449 C   0  0  0  0  0  0  0  0  0  0  0  0
  -15.3828  -39.0066   -7.4605 C   0  0  2  0  0  0  0  0  0  0  0  0
  -15.6914  -39.8874   -8.5583 N   0  0  0  0  0  0  0  0  0  0  0  0
  -16.1005  -41.1703   -8.8788 C   0  0  0  0  0  0  0  0  0  0  0  0
  -15.8112  -42.1161   -7.9582 O   0  0  0  0  0  0  0  0  0  0  0  0
  -16.8054  -41.8285  -10.0259 C   0  0  0  0  0  0  0  0  0  0  0  0
  -17.8184  -42.7071   -9.5717 C   0  0  0  0  0  0  0  0  0  0  0  0
  -18.5607  -43.5119  -10.4139 C   0  0  0  0  0  0  0  0  0  0  0  0
  -19.8056  -44.5753   -9.7911 Cl  0  0  0  0  0  0  0  0  0  0  0  0
  -18.2577  -43.4080  -11.6906 N   0  0  0  0  0  0  0  0  0  0  0  0
  -17.2804  -42.5723  -12.2163 C   0  0  0  0  0  0  0  0  0  0  0  0
  -16.5503  -41.7743  -11.3890 C   0  0  0  0  0  0  0  0  0  0  0  0
  -17.2264  -42.7983  -13.6360 N   0  0  0  0  0  0  0  0  0  0  0  0
  -16.0646  -43.0913  -14.4604 C   0  0  0  0  0  0  0  0  0  0  0  0
  -14.8371  -43.3968  -13.6109 C   0  0  0  0  0  0  0  0  0  0  0  0
  -13.8637  -42.2653  -13.5007 C   0  0  0  0  0  0  0  0  0  0  0  0
  -13.1035  -42.2692  -12.1920 C   0  0  0  0  0  0  0  0  0  0  0  0
  -12.5104  -41.0704  -11.8522 O   0  0  0  0  0  0  0  0  0  0  0  0
  -12.8358  -39.9684  -11.0614 C   0  0  0  0  0  0  0  0  0  0  0  0
  -13.2585  -39.9354   -9.7428 C   0  0  0  0  0  0  0  0  0  0  0  0
  -16.4800  -37.9983   -7.2093 C   0  0  2  0  0  0  0  0  0  0  0  0
  -15.8713  -36.9801   -6.3513 O   0  0  0  0  0  0  0  0  0  0  0  0
  -17.6309  -38.4108   -6.3875 C   0  0  0  0  0  0  0  0  0  0  0  0
  -18.7883  -37.6302   -6.2902 N   0  0  0  0  0  0  0  0  0  0  0  0
  -19.6059  -37.5011   -7.4684 C   0  0  0  0  0  0  0  0  0  0  0  0
  -20.7751  -38.3805   -7.4738 C   0  0  0  0  0  0  0  0  0  0  0  0
  -21.1361  -39.1229   -6.3760 C   0  0  0  0  0  0  0  0  0  0  0  0
  -22.2527  -39.9665   -6.4057 C   0  0  0  0  0  0  0  0  0  0  0  0
  -22.9885  -40.0365   -7.5716 C   0  0  0  0  0  0  0  0  0  0  0  0
  -22.6448  -39.3007   -8.6847 C   0  0  0  0  0  0  0  0  0  0  0  0
  -21.5382  -38.4833   -8.6107 C   0  0  0  0  0  0  0  0  0  0  0  0
  -22.6844  -40.7811   -5.2414 C   0  0  0  0  0  0  0  0  0  0  0  0
  -22.1711  -40.1583   -3.9356 C   0  0  0  0  0  0  0  0  0  0  0  0
  -22.0249  -42.1627   -5.3173 C   0  0  0  0  0  0  0  0  0  0  0  0
  1  2  1  0
  2  3  1  0
  3  4  2  0
  4  5  1  0
  5  6  2  0
  6  7  1  0
  8  7  1  6
  8  9  1  0
  9 10  1  0
 10 11  2  0
 10 12  1  0
 12 13  2  0
 13 14  1  0
 14 15  1  0
 14 16  2  0
 16 17  1  0
 17 18  2  0
 17 19  1  0
 19 20  1  0
 20 21  1  0
 21 22  1  0
 22 23  1  0
 23 24  1  0
 24 25  1  0
 25 26  2  0
  8 27  1  0
 27 28  1  1
 27 29  1  0
 29 30  1  0
 30 31  1  0
 31 32  1  0
 32 33  2  0
 33 34  1  0
 34 35  2  0
 35 36  1  0
 36 37  2  0
 34 38  1  0
 38 39  1  0
 38 40  1  0
 18 12  1  0
 25  3  1  0
 26  6  1  0
 37 32  1  0
M  END
$$$$
