
     RDKit          3D

 40 43  0  0  0  0  0  0  0  0999 V2000
  -13.3192  -34.4904  -14.0406 C   0  0  0  0  0  0  0  0  0  0  0  0
  -13.8291  -35.7714  -13.7933 O   0  0  0  0  0  0  0  0  0  0  0  0
  -14.0873  -36.1666  -12.4711 C   0  0  0  0  0  0  0  0  0  0  0  0
  -15.2152  -35.6407  -11.8948 C   0  0  0  0  0  0  0  0  0  0  0  0
  -15.4581  -36.0302  -10.6033 C   0  0  0  0  0  0  0  0  0  0  0  0
  -14.6326  -36.9117   -9.8694 C   0  0  0  0  0  0  0  0  0  0  0  0
  -15.2790  -37.1527   -8.5290 C   0  0  0  0  0  0  0  0  0  0  0  0
  -15.5292  -38.6206   -8.2044 C   0  0  2  0  0  0  0  0  0  0  0  0
  -15.0357  -39.3584   -9.3394 N   0  0  0  0  0  0  0  0  0  0  0  0
  -14.2798  -40.4557   -9.7143 C   0  0  0  0  0  0  0  0  0  0  0  0
  -13.3476  -40.8486   -8.8186 O   0  0  0  0  0  0  0  0  0  0  0  0
  -14.2062  -41.3666  -10.9021 C   0  0  0  0  0  0  0  0  0  0  0  0
  -14.1332  -42.7239  -10.5060 C   0  0  0  0  0  0  0  0  0  0  0  0
  -13.9642  -43.7674  -11.3951 C   0  0  0  0  0  0  0  0  0  0  0  0
  -13.8867  -45.4281  -10.8432 Cl  0  0  0  0  0  0  0  0  0  0  0  0
  -13.8718  -43.4105  -12.6587 N   0  0  0  0  0  0  0  0  0  0  0  0
  -13.9336  -42.1047  -13.1286 C   0  0  0  0  0  0  0  0  0  0  0  0
  -14.1049  -41.0744  -12.2549 C   0  0  0  0  0  0  0  0  0  0  0  0
  -13.7360  -42.1407  -14.5532 N   0  0  0  0  0  0  0  0  0  0  0  0
  -12.7977  -41.3708  -15.3545 C   0  0  0  0  0  0  0  0  0  0  0  0
  -11.7932  -40.6281  -14.4823 C   0  0  0  0  0  0  0  0  0  0  0  0
  -12.0844  -39.1706  -14.3070 C   0  0  0  0  0  0  0  0  0  0  0  0
  -11.6006  -38.6300  -12.9787 C   0  0  0  0  0  0  0  0  0  0  0  0
  -12.1768  -37.4404  -12.5823 O   0  0  0  0  0  0  0  0  0  0  0  0
  -13.2379  -37.0527  -11.7640 C   0  0  0  0  0  0  0  0  0  0  0  0
  -13.5114  -37.4215  -10.4572 C   0  0  0  0  0  0  0  0  0  0  0  0
  -16.9967  -38.8754   -7.9497 C   0  0  2  0  0  0  0  0  0  0  0  0
  -17.5072  -37.6249   -7.3847 O   0  0  0  0  0  0  0  0  0  0  0  0
  -17.3646  -39.8348   -6.8940 C   0  0  0  0  0  0  0  0  0  0  0  0
  -17.4601  -41.2086   -7.1431 N   0  0  0  0  0  0  0  0  0  0  0  0
  -18.6395  -41.6826   -7.8196 C   0  0  0  0  0  0  0  0  0  0  0  0
  -19.8643  -40.9849   -7.4277 C   0  0  0  0  0  0  0  0  0  0  0  0
  -20.5604  -41.3136   -6.2902 C   0  0  0  0  0  0  0  0  0  0  0  0
  -21.7363  -40.6402   -5.9390 C   0  0  0  0  0  0  0  0  0  0  0  0
  -22.1843  -39.6311   -6.7676 C   0  0  0  0  0  0  0  0  0  0  0  0
  -21.5020  -39.2846   -7.9134 C   0  0  0  0  0  0  0  0  0  0  0  0
  -20.3492  -39.9737   -8.2202 C   0  0  0  0  0  0  0  0  0  0  0  0
  -22.5169  -40.9563   -4.7158 C   0  0  0  0  0  0  0  0  0  0  0  0
  -22.0148  -40.1183   -3.5317 C   0  0  0  0  0  0  0  0  0  0  0  0
  -22.2635  -42.4142   -4.3158 C   0  0  0  0  0  0  0  0  0  0  0  0
  1  2  1  0
  2  3  1  0
  3  4  2  0
  4  5  1  0
  5  6  2  0
  6  7  1  0
  8  7  1  6
  8  9  1  0
  9 10  1  0
 10 11  2  0
 10 12  1  0
 12 13  2  0
 13 14  1  0
 14 15  1  0
 14 16  2  0
 16 17  1  0
 17 18  2  0
 17 19  1  0
 19 20  1  0
 20 21  1  0
 21 22  1  0
 22 23  1  0
 23 24  1  0
 24 25  1  0
 25 26  2  0
  8 27  1  0
 27 28  1  1
 27 29  1  0
 29 30  1  0
 30 31  1  0
 31 32  1  0
 32 33  2  0
 33 34  1  0
 34 35  2  0
 35 36  1  0
 36 37  2  0
 34 38  1  0
 38 39  1  0
 38 40  1  0
 18 12  1  0
 25  3  1  0
 26  6  1  0
 37 32  1  0
M  END
$$$$
