
     RDKit          3D

 40 43  0  0  0  0  0  0  0  0999 V2000
  -23.4627  -39.0781   -3.9633 C   0  0  0  0  0  0  0  0  0  0  0  0
  -22.7481  -40.0727   -4.6431 O   0  0  0  0  0  0  0  0  0  0  0  0
  -21.8915  -39.7089   -5.6943 C   0  0  0  0  0  0  0  0  0  0  0  0
  -20.9004  -38.8141   -5.3812 C   0  0  0  0  0  0  0  0  0  0  0  0
  -20.0705  -38.4630   -6.4139 C   0  0  0  0  0  0  0  0  0  0  0  0
  -20.1859  -38.9602   -7.7317 C   0  0  0  0  0  0  0  0  0  0  0  0
  -19.0458  -38.4019   -8.5450 C   0  0  0  0  0  0  0  0  0  0  0  0
  -18.1834  -39.4561   -9.2286 C   0  0  2  0  0  0  0  0  0  0  0  0
  -18.7644  -40.7249   -8.8696 N   0  0  0  0  0  0  0  0  0  0  0  0
  -19.1568  -41.9543   -9.3702 C   0  0  0  0  0  0  0  0  0  0  0  0
  -19.4785  -41.9680  -10.6825 O   0  0  0  0  0  0  0  0  0  0  0  0
  -19.3362  -43.3391   -8.8260 C   0  0  0  0  0  0  0  0  0  0  0  0
  -18.7633  -44.3078   -9.6850 C   0  0  0  0  0  0  0  0  0  0  0  0
  -18.8650  -45.6687   -9.4713 C   0  0  0  0  0  0  0  0  0  0  0  0
  -18.1288  -46.8185  -10.5687 Cl  0  0  0  0  0  0  0  0  0  0  0  0
  -19.5441  -46.0127   -8.3975 N   0  0  0  0  0  0  0  0  0  0  0  0
  -20.1357  -45.1266   -7.5061 C   0  0  0  0  0  0  0  0  0  0  0  0
  -20.0330  -43.7844   -7.7116 C   0  0  0  0  0  0  0  0  0  0  0  0
  -20.8239  -45.9013   -6.5081 N   0  0  0  0  0  0  0  0  0  0  0  0
  -22.2022  -45.7776   -6.0606 C   0  0  0  0  0  0  0  0  0  0  0  0
  -23.0023  -44.8445   -6.9608 C   0  0  0  0  0  0  0  0  0  0  0  0
  -23.2113  -43.4726   -6.4004 C   0  0  0  0  0  0  0  0  0  0  0  0
  -23.3232  -42.4103   -7.4726 C   0  0  0  0  0  0  0  0  0  0  0  0
  -23.1096  -41.1162   -7.0436 O   0  0  0  0  0  0  0  0  0  0  0  0
  -22.0357  -40.2268   -7.0048 C   0  0  0  0  0  0  0  0  0  0  0  0
  -21.1812  -39.8461   -8.0264 C   0  0  0  0  0  0  0  0  0  0  0  0
  -16.7416  -39.3421   -8.7910 C   0  0  2  0  0  0  0  0  0  0  0  0
  -16.4536  -37.9066   -8.8016 O   0  0  0  0  0  0  0  0  0  0  0  0
  -15.6960  -39.8480   -9.6970 C   0  0  0  0  0  0  0  0  0  0  0  0
  -14.6351  -40.6355   -9.2360 N   0  0  0  0  0  0  0  0  0  0  0  0
  -13.3298  -40.0300   -9.1829 C   0  0  0  0  0  0  0  0  0  0  0  0
  -12.9362  -39.3680  -10.4268 C   0  0  0  0  0  0  0  0  0  0  0  0
  -12.7404  -38.0106  -10.5019 C   0  0  0  0  0  0  0  0  0  0  0  0
  -12.3741  -37.3957  -11.7048 C   0  0  0  0  0  0  0  0  0  0  0  0
  -12.2131  -38.1896  -12.8225 C   0  0  0  0  0  0  0  0  0  0  0  0
  -12.4042  -39.5532  -12.7702 C   0  0  0  0  0  0  0  0  0  0  0  0
  -12.7638  -40.1161  -11.5653 C   0  0  0  0  0  0  0  0  0  0  0  0
  -12.1445  -35.9339  -11.8308 C   0  0  0  0  0  0  0  0  0  0  0  0
  -11.2209  -35.4407  -10.7083 C   0  0  0  0  0  0  0  0  0  0  0  0
  -13.4695  -35.1928  -11.6193 C   0  0  0  0  0  0  0  0  0  0  0  0
  1  2  1  0
  2  3  1  0
  3  4  2  0
  4  5  1  0
  5  6  2  0
  6  7  1  0
  8  7  1  1
  8  9  1  0
  9 10  1  0
 10 11  2  0
 10 12  1  0
 12 13  2  0
 13 14  1  0
 14 15  1  0
 14 16  2  0
 16 17  1  0
 17 18  2  0
 17 19  1  0
 19 20  1  0
 20 21  1  0
 21 22  1  0
 22 23  1  0
 23 24  1  0
 24 25  1  0
 25 26  2  0
  8 27  1  0
 27 28  1  6
 27 29  1  0
 29 30  1  0
 30 31  1  0
 31 32  1  0
 32 33  2  0
 33 34  1  0
 34 35  2  0
 35 36  1  0
 36 37  2  0
 34 38  1  0
 38 39  1  0
 38 40  1  0
 18 12  1  0
 25  3  1  0
 26  6  1  0
 37 32  1  0
M  END
$$$$
