
     RDKit          3D

 40 43  0  0  0  0  0  0  0  0999 V2000
  -24.1232  -39.2581   -4.3569 C   0  0  0  0  0  0  0  0  0  0  0  0
  -23.1669  -40.1744   -4.8130 O   0  0  0  0  0  0  0  0  0  0  0  0
  -22.0643  -39.7109   -5.5481 C   0  0  0  0  0  0  0  0  0  0  0  0
  -21.2419  -38.8221   -4.9042 C   0  0  0  0  0  0  0  0  0  0  0  0
  -20.1695  -38.3733   -5.6302 C   0  0  0  0  0  0  0  0  0  0  0  0
  -19.8855  -38.7681   -6.9571 C   0  0  0  0  0  0  0  0  0  0  0  0
  -18.5870  -38.1233   -7.3704 C   0  0  0  0  0  0  0  0  0  0  0  0
  -17.5218  -39.1018   -7.8503 C   0  0  2  0  0  0  0  0  0  0  0  0
  -18.1254  -40.4071   -7.7605 N   0  0  0  0  0  0  0  0  0  0  0  0
  -18.3067  -41.6017   -8.4358 C   0  0  0  0  0  0  0  0  0  0  0  0
  -18.2428  -41.5196   -9.7830 O   0  0  0  0  0  0  0  0  0  0  0  0
  -18.5730  -43.0285   -8.0623 C   0  0  0  0  0  0  0  0  0  0  0  0
  -17.7392  -43.9143   -8.7865 C   0  0  0  0  0  0  0  0  0  0  0  0
  -17.8385  -45.2896   -8.7051 C   0  0  0  0  0  0  0  0  0  0  0  0
  -16.7729  -46.3336   -9.6231 Cl  0  0  0  0  0  0  0  0  0  0  0  0
  -18.7784  -45.7313   -7.8964 N   0  0  0  0  0  0  0  0  0  0  0  0
  -19.6358  -44.9308   -7.1521 C   0  0  0  0  0  0  0  0  0  0  0  0
  -19.5370  -43.5747   -7.2267 C   0  0  0  0  0  0  0  0  0  0  0  0
  -20.5443  -45.7959   -6.4481 N   0  0  0  0  0  0  0  0  0  0  0  0
  -21.9969  -45.7376   -6.4053 C   0  0  0  0  0  0  0  0  0  0  0  0
  -22.5489  -44.7544   -7.4300 C   0  0  0  0  0  0  0  0  0  0  0  0
  -22.9668  -43.4355   -6.8594 C   0  0  0  0  0  0  0  0  0  0  0  0
  -22.8162  -42.2951   -7.8430 C   0  0  0  0  0  0  0  0  0  0  0  0
  -22.7887  -41.0343   -7.2827 O   0  0  0  0  0  0  0  0  0  0  0  0
  -21.8091  -40.1276   -6.8777 C   0  0  0  0  0  0  0  0  0  0  0  0
  -20.7176  -39.6497   -7.5840 C   0  0  0  0  0  0  0  0  0  0  0  0
  -16.2692  -38.9912   -7.0124 C   0  0  2  0  0  0  0  0  0  0  0  0
  -15.8786  -37.5827   -7.0969 O   0  0  0  0  0  0  0  0  0  0  0  0
  -15.0460  -39.6544   -7.4963 C   0  0  0  0  0  0  0  0  0  0  0  0
  -14.0020  -38.9378   -8.0920 N   0  0  0  0  0  0  0  0  0  0  0  0
  -13.8022  -39.1050   -9.5081 C   0  0  0  0  0  0  0  0  0  0  0  0
  -14.6028  -38.1953  -10.3278 C   0  0  0  0  0  0  0  0  0  0  0  0
  -14.0831  -37.5499  -11.4232 C   0  0  0  0  0  0  0  0  0  0  0  0
  -14.8637  -36.6751  -12.1880 C   0  0  0  0  0  0  0  0  0  0  0  0
  -16.1771  -36.4737  -11.8138 C   0  0  0  0  0  0  0  0  0  0  0  0
  -16.7192  -37.1106  -10.7188 C   0  0  0  0  0  0  0  0  0  0  0  0
  -15.9147  -37.9632   -9.9952 C   0  0  0  0  0  0  0  0  0  0  0  0
  -14.3467  -35.9621  -13.3837 C   0  0  0  0  0  0  0  0  0  0  0  0
  -14.8575  -36.6328  -14.6665 C   0  0  0  0  0  0  0  0  0  0  0  0
  -12.8209  -36.0997  -13.4352 C   0  0  0  0  0  0  0  0  0  0  0  0
  1  2  1  0
  2  3  1  0
  3  4  2  0
  4  5  1  0
  5  6  2  0
  6  7  1  0
  8  7  1  1
  8  9  1  0
  9 10  1  0
 10 11  2  0
 10 12  1  0
 12 13  2  0
 13 14  1  0
 14 15  1  0
 14 16  2  0
 16 17  1  0
 17 18  2  0
 17 19  1  0
 19 20  1  0
 20 21  1  0
 21 22  1  0
 22 23  1  0
 23 24  1  0
 24 25  1  0
 25 26  2  0
  8 27  1  0
 27 28  1  6
 27 29  1  0
 29 30  1  0
 30 31  1  0
 31 32  1  0
 32 33  2  0
 33 34  1  0
 34 35  2  0
 35 36  1  0
 36 37  2  0
 34 38  1  0
 38 39  1  0
 38 40  1  0
 18 12  1  0
 25  3  1  0
 26  6  1  0
 37 32  1  0
M  END
$$$$
