
     RDKit          3D

 40 43  0  0  0  0  0  0  0  0999 V2000
  -13.4760  -43.0429  -13.5561 C   0  0  0  0  0  0  0  0  0  0  0  0
  -14.6407  -43.1223  -12.7819 O   0  0  0  0  0  0  0  0  0  0  0  0
  -14.7435  -42.3539  -11.6115 C   0  0  0  0  0  0  0  0  0  0  0  0
  -14.8978  -41.0029  -11.7897 C   0  0  0  0  0  0  0  0  0  0  0  0
  -14.9950  -40.2605  -10.6417 C   0  0  0  0  0  0  0  0  0  0  0  0
  -14.9448  -40.8018   -9.3373 C   0  0  0  0  0  0  0  0  0  0  0  0
  -15.1683  -39.6802   -8.3552 C   0  0  0  0  0  0  0  0  0  0  0  0
  -16.3247  -39.9088   -7.3893 C   0  0  2  0  0  0  0  0  0  0  0  0
  -16.8667  -41.1992   -7.7317 N   0  0  0  0  0  0  0  0  0  0  0  0
  -17.3123  -42.3984   -7.2033 C   0  0  0  0  0  0  0  0  0  0  0  0
  -16.7913  -42.7294   -6.0012 O   0  0  0  0  0  0  0  0  0  0  0  0
  -18.2558  -43.4843   -7.6237 C   0  0  0  0  0  0  0  0  0  0  0  0
  -19.1118  -43.8622   -6.5612 C   0  0  0  0  0  0  0  0  0  0  0  0
  -20.0158  -44.9031   -6.6466 C   0  0  0  0  0  0  0  0  0  0  0  0
  -21.0527  -45.3192   -5.2975 Cl  0  0  0  0  0  0  0  0  0  0  0  0
  -20.0281  -45.5342   -7.8016 N   0  0  0  0  0  0  0  0  0  0  0  0
  -19.2228  -45.2265   -8.8909 C   0  0  0  0  0  0  0  0  0  0  0  0
  -18.3341  -44.1978   -8.8114 C   0  0  0  0  0  0  0  0  0  0  0  0
  -19.5039  -46.1822   -9.9289 N   0  0  0  0  0  0  0  0  0  0  0  0
  -18.5659  -46.9999  -10.6818 C   0  0  0  0  0  0  0  0  0  0  0  0
  -17.1650  -46.9388  -10.0858 C   0  0  0  0  0  0  0  0  0  0  0  0
  -16.2184  -46.0425  -10.8209 C   0  0  0  0  0  0  0  0  0  0  0  0
  -15.1682  -45.4305   -9.9192 C   0  0  0  0  0  0  0  0  0  0  0  0
  -14.5376  -44.3121  -10.4248 O   0  0  0  0  0  0  0  0  0  0  0  0
  -14.6890  -42.9295  -10.3182 C   0  0  0  0  0  0  0  0  0  0  0  0
  -14.7859  -42.1480   -9.1788 C   0  0  0  0  0  0  0  0  0  0  0  0
  -17.3521  -38.8068   -7.5055 C   0  0  2  0  0  0  0  0  0  0  0  0
  -16.6680  -37.7223   -8.2122 O   0  0  0  0  0  0  0  0  0  0  0  0
  -17.7786  -38.1188   -6.2747 C   0  0  0  0  0  0  0  0  0  0  0  0
  -18.5353  -38.7645   -5.2904 N   0  0  0  0  0  0  0  0  0  0  0  0
  -19.5573  -39.6791   -5.7287 C   0  0  0  0  0  0  0  0  0  0  0  0
  -20.4391  -39.1283   -6.7581 C   0  0  0  0  0  0  0  0  0  0  0  0
  -21.3526  -39.9039   -7.4292 C   0  0  0  0  0  0  0  0  0  0  0  0
  -22.1797  -39.3590   -8.4183 C   0  0  0  0  0  0  0  0  0  0  0  0
  -22.0558  -38.0147   -8.7067 C   0  0  0  0  0  0  0  0  0  0  0  0
  -21.1464  -37.2178   -8.0461 C   0  0  0  0  0  0  0  0  0  0  0  0
  -20.3528  -37.7961   -7.0797 C   0  0  0  0  0  0  0  0  0  0  0  0
  -23.1861  -40.1573   -9.1637 C   0  0  0  0  0  0  0  0  0  0  0  0
  -24.5955  -39.8751   -8.6249 C   0  0  0  0  0  0  0  0  0  0  0  0
  -22.9442  -41.6482   -8.9028 C   0  0  0  0  0  0  0  0  0  0  0  0
  1  2  1  0
  2  3  1  0
  3  4  2  0
  4  5  1  0
  5  6  2  0
  6  7  1  0
  8  7  1  6
  8  9  1  0
  9 10  1  0
 10 11  2  0
 10 12  1  0
 12 13  2  0
 13 14  1  0
 14 15  1  0
 14 16  2  0
 16 17  1  0
 17 18  2  0
 17 19  1  0
 19 20  1  0
 20 21  1  0
 21 22  1  0
 22 23  1  0
 23 24  1  0
 24 25  1  0
 25 26  2  0
  8 27  1  0
 27 28  1  6
 27 29  1  0
 29 30  1  0
 30 31  1  0
 31 32  1  0
 32 33  2  0
 33 34  1  0
 34 35  2  0
 35 36  1  0
 36 37  2  0
 34 38  1  0
 38 39  1  0
 38 40  1  0
 18 12  1  0
 25  3  1  0
 26  6  1  0
 37 32  1  0
M  END
$$$$
