
     RDKit          3D

 29 30  0  2  0  0  0  0  0  0999 V2000
   14.6465    8.9788   -9.5271 C   0  0  0  0  0  0  0  0  0  0  0  0
   15.8675    9.6044   -9.5261 C   0  0  0  0  0  0  0  0  0  0  0  0
   16.7255    9.4295   -8.4746 C   0  0  0  0  0  0  0  0  0  0  0  0
   16.4216    8.6250   -7.3657 C   0  0  0  0  0  0  0  0  0  0  0  0
   15.1922    8.0235   -7.4153 C   0  0  0  0  0  0  0  0  0  0  0  0
   14.2933    8.1785   -8.4684 C   0  0  0  0  0  0  0  0  0  0  0  0
   17.3883    8.4958   -6.2972 C   0  0  0  0  0  0  0  0  0  0  0  0
   17.3859    7.5658   -5.1737 C   0  0  0  0  0  0  0  0  0  0  0  0
   18.4031    9.3006   -6.3138 O   0  0  0  0  0  0  0  0  0  0  0  0
   18.5255    7.4963   -4.3936 O   0  0  0  0  0  0  0  0  0  0  0  0
   18.3868    7.4018   -3.0027 C   0  0  0  0  0  0  0  0  0  0  0  0
   17.4035    6.6570   -2.4300 C   0  0  0  0  0  0  0  0  0  0  0  0
   17.2899    6.5814   -1.0642 C   0  0  0  0  0  0  0  0  0  0  0  0
   18.1380    7.2347   -0.1990 C   0  0  0  0  0  0  0  0  0  0  0  0
   19.1350    7.9900   -0.7821 C   0  0  0  0  0  0  0  0  0  0  0  0
   19.2661    8.0788   -2.1642 C   0  0  0  0  0  0  0  0  0  0  0  0
   17.9865    7.1278    1.2428 C   0  0  0  0  0  0  0  0  0  0  0  0
   17.1096    8.1637    1.8908 C   0  0  1  0  0  0  0  0  0  0  0  0
   15.6782    7.8237    1.9114 C   0  0  0  0  0  0  0  0  0  0  0  0
   14.9340    7.8347    0.7158 N   0  0  0  0  0  0  0  0  0  0  0  0
   15.1061    7.5231    2.9778 O   0  0  0  0  0  0  0  0  0  0  0  0
   13.7066    7.0697    0.5822 C   0  0  0  0  0  0  0  0  0  0  0  0
   17.5836    8.5747    3.1281 O   0  0  0  0  0  0  0  0  0  0  0  0
   18.3453    9.7116    3.0952 C   0  0  0  0  0  0  0  0  0  0  0  0
   17.4123   10.8942    2.9314 C   0  0  0  0  0  0  0  0  0  0  0  0
   16.2805   10.4273  -10.5708 O   0  0  0  0  0  0  0  0  0  0  0  0
   17.6012   10.5088  -11.0201 C   0  0  0  0  0  0  0  0  0  0  0  0
   15.3821    8.5800   -0.3291 O   0  0  0  0  0  0  0  0  0  0  0  0
   15.7349    9.8660    0.0651 C   0  0  0  0  0  0  0  0  0  0  0  0
 26 27  1  0
  2 26  1  0
 28 29  1  0
 20 28  1  0
  1  2  2  0
  2  3  1  0
  3  4  2  0
  4  5  1  0
  5  6  2  0
  6  1  1  0
  4  7  1  0
  7  8  1  0
  7  9  2  0
  8 10  1  0
 10 11  1  0
 11 12  2  0
 12 13  1  0
 13 14  2  0
 14 15  1  0
 15 16  2  0
 16 11  1  0
 14 17  1  0
 18 17  1  1
 18 19  1  0
 19 20  1  0
 19 21  2  0
 20 22  1  0
 18 23  1  0
 23 24  1  0
 24 25  1  0
M  STY  2   1 SUP   2 SUP
M  SLB  2   1   1   2   2
M  SAL   1  2  26  27
M  SBL   1  1   2
M  SMT   1 OCH3
M  SBV   1   2    0.7144    0.4125
M  SAL   2  2  28  29
M  SBL   2  1   4
M  SMT   2 OCH3
M  SBV   2   4   -0.7144   -0.4125
M  END
$$$$
