
     RDKit          3D

 29 30  0  2  0  0  0  0  0  0999 V2000
   18.4076    8.5051   -8.4316 C   0  0  0  0  0  0  0  0  0  0  0  0
   17.1690    7.9205   -8.5101 C   0  0  0  0  0  0  0  0  0  0  0  0
   16.5369    7.5002   -7.3716 C   0  0  0  0  0  0  0  0  0  0  0  0
   17.0968    7.6358   -6.0920 C   0  0  0  0  0  0  0  0  0  0  0  0
   18.3329    8.2249   -6.0681 C   0  0  0  0  0  0  0  0  0  0  0  0
   19.0061    8.6647   -7.2058 C   0  0  0  0  0  0  0  0  0  0  0  0
   16.3583    7.1634   -4.9413 C   0  0  0  0  0  0  0  0  0  0  0  0
   15.4178    7.8940   -4.0993 C   0  0  0  0  0  0  0  0  0  0  0  0
   16.5353    5.9301   -4.5870 O   0  0  0  0  0  0  0  0  0  0  0  0
   15.6395    7.8911   -2.7345 O   0  0  0  0  0  0  0  0  0  0  0  0
   15.1830    8.9756   -1.9739 C   0  0  0  0  0  0  0  0  0  0  0  0
   14.9225   10.1858   -2.5369 C   0  0  0  0  0  0  0  0  0  0  0  0
   14.4760   11.2321   -1.7689 C   0  0  0  0  0  0  0  0  0  0  0  0
   14.2652   11.1362   -0.4120 C   0  0  0  0  0  0  0  0  0  0  0  0
   14.5301    9.9073    0.1573 C   0  0  0  0  0  0  0  0  0  0  0  0
   14.9833    8.8353   -0.6047 C   0  0  0  0  0  0  0  0  0  0  0  0
   13.7889   12.2673    0.3671 C   0  0  0  0  0  0  0  0  0  0  0  0
   12.2956   12.4235    0.4550 C   0  0  1  0  0  0  0  0  0  0  0  0
   11.6506   11.5586    1.4555 C   0  0  0  0  0  0  0  0  0  0  0  0
   10.3468   11.0750    1.2332 N   0  0  0  0  0  0  0  0  0  0  0  0
   12.2424   11.2428    2.5066 O   0  0  0  0  0  0  0  0  0  0  0  0
    9.7128   10.1555    2.1618 C   0  0  0  0  0  0  0  0  0  0  0  0
   11.8961   13.7485    0.5505 O   0  0  0  0  0  0  0  0  0  0  0  0
   12.1099   14.3191    1.7763 C   0  0  0  0  0  0  0  0  0  0  0  0
   13.5835   14.6549    1.8844 C   0  0  0  0  0  0  0  0  0  0  0  0
   16.5129    7.7322   -9.7239 O   0  0  0  0  0  0  0  0  0  0  0  0
   16.2118    8.7671  -10.6131 C   0  0  0  0  0  0  0  0  0  0  0  0
    9.6758   11.4833    0.1236 O   0  0  0  0  0  0  0  0  0  0  0  0
    8.9227   12.6272    0.3648 C   0  0  0  0  0  0  0  0  0  0  0  0
 26 27  1  0
  2 26  1  0
 28 29  1  0
 20 28  1  0
  1  2  2  0
  2  3  1  0
  3  4  2  0
  4  5  1  0
  5  6  2  0
  6  1  1  0
  4  7  1  0
  7  8  1  0
  7  9  2  0
  8 10  1  0
 10 11  1  0
 11 12  2  0
 12 13  1  0
 13 14  2  0
 14 15  1  0
 15 16  2  0
 16 11  1  0
 14 17  1  0
 18 17  1  1
 18 19  1  0
 19 20  1  0
 19 21  2  0
 20 22  1  0
 18 23  1  0
 23 24  1  0
 24 25  1  0
M  STY  2   1 SUP   2 SUP
M  SLB  2   1   1   2   2
M  SAL   1  2  26  27
M  SBL   1  1   2
M  SMT   1 OCH3
M  SBV   1   2    0.7144    0.4125
M  SAL   2  2  28  29
M  SBL   2  1   4
M  SMT   2 OCH3
M  SBV   2   4   -0.7144   -0.4125
M  END
$$$$
