
     RDKit          3D

 29 30  0  2  0  0  0  0  0  0999 V2000
   20.6670    6.5992   -1.5294 C   0  0  0  0  0  0  0  0  0  0  0  0
   20.4846    6.6651   -0.1713 C   0  0  0  0  0  0  0  0  0  0  0  0
   19.2305    6.8535    0.3427 C   0  0  0  0  0  0  0  0  0  0  0  0
   18.0874    6.9870   -0.4603 C   0  0  0  0  0  0  0  0  0  0  0  0
   18.3232    6.9141   -1.8074 C   0  0  0  0  0  0  0  0  0  0  0  0
   19.5851    6.7233   -2.3661 C   0  0  0  0  0  0  0  0  0  0  0  0
   16.7990    7.1835    0.1675 C   0  0  0  0  0  0  0  0  0  0  0  0
   15.4835    7.2633   -0.4573 C   0  0  0  0  0  0  0  0  0  0  0  0
   16.7791    7.3086    1.4567 O   0  0  0  0  0  0  0  0  0  0  0  0
   14.4599    7.8422    0.2699 O   0  0  0  0  0  0  0  0  0  0  0  0
   13.8934    9.0366   -0.1944 C   0  0  0  0  0  0  0  0  0  0  0  0
   13.2697    9.1119   -1.4006 C   0  0  0  0  0  0  0  0  0  0  0  0
   12.7230   10.2947   -1.8318 C   0  0  0  0  0  0  0  0  0  0  0  0
   12.7644   11.4577   -1.0966 C   0  0  0  0  0  0  0  0  0  0  0  0
   13.3978   11.3791    0.1270 C   0  0  0  0  0  0  0  0  0  0  0  0
   13.9578   10.1894    0.5810 C   0  0  0  0  0  0  0  0  0  0  0  0
   12.1712   12.6909   -1.5870 C   0  0  0  0  0  0  0  0  0  0  0  0
   12.9172   13.3855   -2.6929 C   0  0  1  0  0  0  0  0  0  0  0  0
   12.9845   12.6274   -3.9521 C   0  0  0  0  0  0  0  0  0  0  0  0
   14.0385   12.8570   -4.8575 N   0  0  0  0  0  0  0  0  0  0  0  0
   12.1175   11.7771   -4.2355 O   0  0  0  0  0  0  0  0  0  0  0  0
   14.1305   12.1291   -6.1110 C   0  0  0  0  0  0  0  0  0  0  0  0
   12.5110   14.6992   -2.8759 O   0  0  0  0  0  0  0  0  0  0  0  0
   12.9519   15.5689   -1.9152 C   0  0  0  0  0  0  0  0  0  0  0  0
   14.2999   16.1045   -2.3534 C   0  0  0  0  0  0  0  0  0  0  0  0
   21.5427    6.5462    0.7262 O   0  0  0  0  0  0  0  0  0  0  0  0
   21.4363    6.8162    2.0931 C   0  0  0  0  0  0  0  0  0  0  0  0
   14.9843   13.7813   -4.5426 O   0  0  0  0  0  0  0  0  0  0  0  0
   16.2656   13.2416   -4.5691 C   0  0  0  0  0  0  0  0  0  0  0  0
 26 27  1  0
  2 26  1  0
 28 29  1  0
 20 28  1  0
  1  2  2  0
  2  3  1  0
  3  4  2  0
  4  5  1  0
  5  6  2  0
  6  1  1  0
  4  7  1  0
  7  8  1  0
  7  9  2  0
  8 10  1  0
 10 11  1  0
 11 12  2  0
 12 13  1  0
 13 14  2  0
 14 15  1  0
 15 16  2  0
 16 11  1  0
 14 17  1  0
 18 17  1  1
 18 19  1  0
 19 20  1  0
 19 21  2  0
 20 22  1  0
 18 23  1  0
 23 24  1  0
 24 25  1  0
M  STY  2   1 SUP   2 SUP
M  SLB  2   1   1   2   2
M  SAL   1  2  26  27
M  SBL   1  1   2
M  SMT   1 OCH3
M  SBV   1   2    0.7144    0.4125
M  SAL   2  2  28  29
M  SBL   2  1   4
M  SMT   2 OCH3
M  SBV   2   4   -0.7144   -0.4125
M  END
$$$$
