
     RDKit          3D

 29 30  0  2  0  0  0  0  0  0999 V2000
   15.2679    8.4757  -12.1523 C   0  0  0  0  0  0  0  0  0  0  0  0
   16.4495    9.1492  -11.9731 C   0  0  0  0  0  0  0  0  0  0  0  0
   17.0212    9.2105  -10.7314 C   0  0  0  0  0  0  0  0  0  0  0  0
   16.4540    8.6078   -9.5982 C   0  0  0  0  0  0  0  0  0  0  0  0
   15.2761    7.9486   -9.8302 C   0  0  0  0  0  0  0  0  0  0  0  0
   14.6654    7.8654  -11.0796 C   0  0  0  0  0  0  0  0  0  0  0  0
   17.1266    8.7224   -8.3226 C   0  0  0  0  0  0  0  0  0  0  0  0
   16.9577    7.9049   -7.1266 C   0  0  0  0  0  0  0  0  0  0  0  0
   18.0020    9.6686   -8.1954 O   0  0  0  0  0  0  0  0  0  0  0  0
   17.8596    8.0818   -6.0936 O   0  0  0  0  0  0  0  0  0  0  0  0
   17.4644    7.7575   -4.7891 C   0  0  0  0  0  0  0  0  0  0  0  0
   16.2883    8.1975   -4.2670 C   0  0  0  0  0  0  0  0  0  0  0  0
   15.9249    7.8650   -2.9857 C   0  0  0  0  0  0  0  0  0  0  0  0
   16.7013    7.0846   -2.1594 C   0  0  0  0  0  0  0  0  0  0  0  0
   17.8943    6.6393   -2.6912 C   0  0  0  0  0  0  0  0  0  0  0  0
   18.2798    6.9657   -3.9874 C   0  0  0  0  0  0  0  0  0  0  0  0
   16.2803    6.7522   -0.8083 C   0  0  0  0  0  0  0  0  0  0  0  0
   16.6835    7.7259    0.2647 C   0  0  1  0  0  0  0  0  0  0  0  0
   15.7337    7.8266    1.3840 C   0  0  0  0  0  0  0  0  0  0  0  0
   14.5336    8.5466    1.2272 N   0  0  0  0  0  0  0  0  0  0  0  0
   15.9737    7.2811    2.4793 O   0  0  0  0  0  0  0  0  0  0  0  0
   14.4200    9.6260    0.2619 C   0  0  0  0  0  0  0  0  0  0  0  0
   17.9945    7.5544    0.6844 O   0  0  0  0  0  0  0  0  0  0  0  0
   18.5500    8.6567    1.2762 C   0  0  0  0  0  0  0  0  0  0  0  0
   18.4305    9.8164    0.3083 C   0  0  0  0  0  0  0  0  0  0  0  0
   17.1066    9.7870  -13.0222 O   0  0  0  0  0  0  0  0  0  0  0  0
   18.0695   10.7840  -12.8445 C   0  0  0  0  0  0  0  0  0  0  0  0
   13.4649    8.2170    2.0000 O   0  0  0  0  0  0  0  0  0  0  0  0
   13.1694    6.8603    1.9246 C   0  0  0  0  0  0  0  0  0  0  0  0
 26 27  1  0
  2 26  1  0
 28 29  1  0
 20 28  1  0
  1  2  2  0
  2  3  1  0
  3  4  2  0
  4  5  1  0
  5  6  2  0
  6  1  1  0
  4  7  1  0
  7  8  1  0
  7  9  2  0
  8 10  1  0
 10 11  1  0
 11 12  2  0
 12 13  1  0
 13 14  2  0
 14 15  1  0
 15 16  2  0
 16 11  1  0
 14 17  1  0
 18 17  1  6
 18 19  1  0
 19 20  1  0
 19 21  2  0
 20 22  1  0
 18 23  1  0
 23 24  1  0
 24 25  1  0
M  STY  2   1 SUP   2 SUP
M  SLB  2   1   1   2   2
M  SAL   1  2  26  27
M  SBL   1  1   2
M  SMT   1 OCH3
M  SBV   1   2    0.7144    0.4125
M  SAL   2  2  28  29
M  SBL   2  1   4
M  SMT   2 OCH3
M  SBV   2   4   -0.7144   -0.4125
M  END
$$$$
