
     RDKit          3D

 29 30  0  2  0  0  0  0  0  0999 V2000
   16.7539    9.2034  -11.3159 C   0  0  0  0  0  0  0  0  0  0  0  0
   15.6153    9.7190  -10.7506 C   0  0  0  0  0  0  0  0  0  0  0  0
   15.4622    9.7117   -9.3908 C   0  0  0  0  0  0  0  0  0  0  0  0
   16.4288    9.1931   -8.5156 C   0  0  0  0  0  0  0  0  0  0  0  0
   17.5454    8.6910   -9.1294 C   0  0  0  0  0  0  0  0  0  0  0  0
   17.7355    8.6816  -10.5096 C   0  0  0  0  0  0  0  0  0  0  0  0
   16.1848    9.2257   -7.0901 C   0  0  0  0  0  0  0  0  0  0  0  0
   16.8099    8.4295   -6.0401 C   0  0  0  0  0  0  0  0  0  0  0  0
   15.2974   10.0647   -6.6582 O   0  0  0  0  0  0  0  0  0  0  0  0
   16.6532    8.8518   -4.7328 O   0  0  0  0  0  0  0  0  0  0  0  0
   17.3850    8.2115   -3.7241 C   0  0  0  0  0  0  0  0  0  0  0  0
   17.2681    6.8765   -3.4921 C   0  0  0  0  0  0  0  0  0  0  0  0
   17.9968    6.2738   -2.4971 C   0  0  0  0  0  0  0  0  0  0  0  0
   18.8739    6.9563   -1.6849 C   0  0  0  0  0  0  0  0  0  0  0  0
   18.9910    8.3107   -1.9220 C   0  0  0  0  0  0  0  0  0  0  0  0
   18.2608    8.9392   -2.9255 C   0  0  0  0  0  0  0  0  0  0  0  0
   19.6300    6.2813   -0.6428 C   0  0  0  0  0  0  0  0  0  0  0  0
   19.0524    6.3581    0.7437 C   0  0  1  0  0  0  0  0  0  0  0  0
   17.7825    5.6352    0.9155 C   0  0  0  0  0  0  0  0  0  0  0  0
   16.5611    6.3346    0.8664 N   0  0  0  0  0  0  0  0  0  0  0  0
   17.7672    4.4028    1.1057 O   0  0  0  0  0  0  0  0  0  0  0  0
   15.2944    5.6608    1.0926 C   0  0  0  0  0  0  0  0  0  0  0  0
   19.9795    6.0611    1.7320 O   0  0  0  0  0  0  0  0  0  0  0  0
   20.1961    7.0717    2.6295 C   0  0  0  0  0  0  0  0  0  0  0  0
   19.2492    6.8716    3.7954 C   0  0  0  0  0  0  0  0  0  0  0  0
   14.5864   10.2612  -11.5165 O   0  0  0  0  0  0  0  0  0  0  0  0
   13.3029   10.5146  -11.0257 C   0  0  0  0  0  0  0  0  0  0  0  0
   16.5787    7.6677    0.6011 O   0  0  0  0  0  0  0  0  0  0  0  0
   16.6091    8.4276    1.7653 C   0  0  0  0  0  0  0  0  0  0  0  0
 26 27  1  0
  2 26  1  0
 28 29  1  0
 20 28  1  0
  1  2  2  0
  2  3  1  0
  3  4  2  0
  4  5  1  0
  5  6  2  0
  6  1  1  0
  4  7  1  0
  7  8  1  0
  7  9  2  0
  8 10  1  0
 10 11  1  0
 11 12  2  0
 12 13  1  0
 13 14  2  0
 14 15  1  0
 15 16  2  0
 16 11  1  0
 14 17  1  0
 18 17  1  6
 18 19  1  0
 19 20  1  0
 19 21  2  0
 20 22  1  0
 18 23  1  0
 23 24  1  0
 24 25  1  0
M  STY  2   1 SUP   2 SUP
M  SLB  2   1   1   2   2
M  SAL   1  2  26  27
M  SBL   1  1   2
M  SMT   1 OCH3
M  SBV   1   2    0.7144    0.4125
M  SAL   2  2  28  29
M  SBL   2  1   4
M  SMT   2 OCH3
M  SBV   2   4   -0.7144   -0.4125
M  END
$$$$
