
     RDKit          3D

 29 30  0  2  0  0  0  0  0  0999 V2000
   14.7406    9.5506  -11.0146 C   0  0  0  0  0  0  0  0  0  0  0  0
   16.0110   10.0618  -10.9326 C   0  0  0  0  0  0  0  0  0  0  0  0
   16.7628    9.8509   -9.8089 C   0  0  0  0  0  0  0  0  0  0  0  0
   16.2976    9.1217   -8.7038 C   0  0  0  0  0  0  0  0  0  0  0  0
   15.0249    8.6332   -8.8357 C   0  0  0  0  0  0  0  0  0  0  0  0
   14.2309    8.8279   -9.9638 C   0  0  0  0  0  0  0  0  0  0  0  0
   17.1601    8.9470   -7.5557 C   0  0  0  0  0  0  0  0  0  0  0  0
   17.2093    7.8347   -6.6136 C   0  0  0  0  0  0  0  0  0  0  0  0
   18.0139    9.8884   -7.3053 O   0  0  0  0  0  0  0  0  0  0  0  0
   18.1603    7.8822   -5.6110 O   0  0  0  0  0  0  0  0  0  0  0  0
   17.8229    7.4058   -4.3373 C   0  0  0  0  0  0  0  0  0  0  0  0
   16.5291    7.2997   -3.9319 C   0  0  0  0  0  0  0  0  0  0  0  0
   16.2259    6.8297   -2.6784 C   0  0  0  0  0  0  0  0  0  0  0  0
   17.1812    6.4425   -1.7662 C   0  0  0  0  0  0  0  0  0  0  0  0
   18.4934    6.5510   -2.1794 C   0  0  0  0  0  0  0  0  0  0  0  0
   18.8202    7.0250   -3.4458 C   0  0  0  0  0  0  0  0  0  0  0  0
   16.8198    5.9473   -0.4481 C   0  0  0  0  0  0  0  0  0  0  0  0
   16.8851    6.9492    0.6718 C   0  0  1  0  0  0  0  0  0  0  0  0
   16.9113    6.3567    2.0184 C   0  0  0  0  0  0  0  0  0  0  0  0
   15.7186    6.2316    2.7566 N   0  0  0  0  0  0  0  0  0  0  0  0
   17.9802    5.9595    2.5231 O   0  0  0  0  0  0  0  0  0  0  0  0
   15.7048    5.6163    4.0723 C   0  0  0  0  0  0  0  0  0  0  0  0
   17.8729    7.9049    0.4843 O   0  0  0  0  0  0  0  0  0  0  0  0
   17.4192    9.1963    0.4759 C   0  0  0  0  0  0  0  0  0  0  0  0
   17.1567    9.6083    1.9102 C   0  0  0  0  0  0  0  0  0  0  0  0
   16.5811   10.8020  -11.9653 O   0  0  0  0  0  0  0  0  0  0  0  0
   17.8429   11.3976  -11.8896 C   0  0  0  0  0  0  0  0  0  0  0  0
   14.5615    6.6996    2.2181 O   0  0  0  0  0  0  0  0  0  0  0  0
   14.3114    6.1469    0.9668 C   0  0  0  0  0  0  0  0  0  0  0  0
 26 27  1  0
  2 26  1  0
 28 29  1  0
 20 28  1  0
  1  2  2  0
  2  3  1  0
  3  4  2  0
  4  5  1  0
  5  6  2  0
  6  1  1  0
  4  7  1  0
  7  8  1  0
  7  9  2  0
  8 10  1  0
 10 11  1  0
 11 12  2  0
 12 13  1  0
 13 14  2  0
 14 15  1  0
 15 16  2  0
 16 11  1  0
 14 17  1  0
 18 17  1  6
 18 19  1  0
 19 20  1  0
 19 21  2  0
 20 22  1  0
 18 23  1  0
 23 24  1  0
 24 25  1  0
M  STY  2   1 SUP   2 SUP
M  SLB  2   1   1   2   2
M  SAL   1  2  26  27
M  SBL   1  1   2
M  SMT   1 OCH3
M  SBV   1   2    0.7144    0.4125
M  SAL   2  2  28  29
M  SBL   2  1   4
M  SMT   2 OCH3
M  SBV   2   4   -0.7144   -0.4125
M  END
$$$$
