
     RDKit          3D

 29 30  0  2  0  0  0  0  0  0999 V2000
   14.6994   10.6874   -9.2263 C   0  0  0  0  0  0  0  0  0  0  0  0
   15.8285   10.1266   -9.7673 C   0  0  0  0  0  0  0  0  0  0  0  0
   16.5300    9.1855   -9.0640 C   0  0  0  0  0  0  0  0  0  0  0  0
   16.1518    8.7476   -7.7855 C   0  0  0  0  0  0  0  0  0  0  0  0
   15.0191    9.3376   -7.2909 C   0  0  0  0  0  0  0  0  0  0  0  0
   14.2800   10.2983   -7.9778 C   0  0  0  0  0  0  0  0  0  0  0  0
   16.9522    7.7478   -7.1130 C   0  0  0  0  0  0  0  0  0  0  0  0
   16.6474    7.0039   -5.8961 C   0  0  0  0  0  0  0  0  0  0  0  0
   18.0987    7.4525   -7.6385 O   0  0  0  0  0  0  0  0  0  0  0  0
   17.7072    6.6118   -5.0991 O   0  0  0  0  0  0  0  0  0  0  0  0
   17.7710    7.0823   -3.7810 C   0  0  0  0  0  0  0  0  0  0  0  0
   18.7562    6.6925   -2.9284 C   0  0  0  0  0  0  0  0  0  0  0  0
   18.7956    7.1688   -1.6417 C   0  0  0  0  0  0  0  0  0  0  0  0
   17.8680    8.0501   -1.1344 C   0  0  0  0  0  0  0  0  0  0  0  0
   16.8691    8.4444   -2.0011 C   0  0  0  0  0  0  0  0  0  0  0  0
   16.8125    7.9726   -3.3086 C   0  0  0  0  0  0  0  0  0  0  0  0
   17.9452    8.5339    0.2343 C   0  0  0  0  0  0  0  0  0  0  0  0
   17.2782    7.6759    1.2739 C   0  0  1  0  0  0  0  0  0  0  0  0
   15.8228    7.5378    1.1074 C   0  0  0  0  0  0  0  0  0  0  0  0
   14.9687    8.5987    1.4656 N   0  0  0  0  0  0  0  0  0  0  0  0
   15.3265    6.4889    0.6507 O   0  0  0  0  0  0  0  0  0  0  0  0
   13.5243    8.4648    1.3910 C   0  0  0  0  0  0  0  0  0  0  0  0
   17.9170    6.4588    1.4603 O   0  0  0  0  0  0  0  0  0  0  0  0
   17.6298    5.8430    2.6487 C   0  0  0  0  0  0  0  0  0  0  0  0
   18.2006    6.6935    3.7652 C   0  0  0  0  0  0  0  0  0  0  0  0
   16.3020   10.4809  -11.0281 O   0  0  0  0  0  0  0  0  0  0  0  0
   16.5840    9.5590  -12.0395 C   0  0  0  0  0  0  0  0  0  0  0  0
   15.5172    9.7684    1.8887 O   0  0  0  0  0  0  0  0  0  0  0  0
   15.8195   10.6134    0.8264 C   0  0  0  0  0  0  0  0  0  0  0  0
 26 27  1  0
  2 26  1  0
 28 29  1  0
 20 28  1  0
  1  2  2  0
  2  3  1  0
  3  4  2  0
  4  5  1  0
  5  6  2  0
  6  1  1  0
  4  7  1  0
  7  8  1  0
  7  9  2  0
  8 10  1  0
 10 11  1  0
 11 12  2  0
 12 13  1  0
 13 14  2  0
 14 15  1  0
 15 16  2  0
 16 11  1  0
 14 17  1  0
 18 17  1  6
 18 19  1  0
 19 20  1  0
 19 21  2  0
 20 22  1  0
 18 23  1  0
 23 24  1  0
 24 25  1  0
M  STY  2   1 SUP   2 SUP
M  SLB  2   1   1   2   2
M  SAL   1  2  26  27
M  SBL   1  1   2
M  SMT   1 OCH3
M  SBV   1   2    0.7144    0.4125
M  SAL   2  2  28  29
M  SBL   2  1   4
M  SMT   2 OCH3
M  SBV   2   4   -0.7144   -0.4125
M  END
$$$$
