
     RDKit          3D

 29 30  0  2  0  0  0  0  0  0999 V2000
   19.6300    1.6031    6.6593 C   0  0  0  0  0  0  0  0  0  0  0  0
   20.0617    2.8339    7.0843 C   0  0  0  0  0  0  0  0  0  0  0  0
   20.1038    3.8847    6.2088 C   0  0  0  0  0  0  0  0  0  0  0  0
   19.7204    3.7743    4.8634 C   0  0  0  0  0  0  0  0  0  0  0  0
   19.2977    2.5264    4.4897 C   0  0  0  0  0  0  0  0  0  0  0  0
   19.2417    1.4342    5.3529 C   0  0  0  0  0  0  0  0  0  0  0  0
   19.7965    4.9376    4.0068 C   0  0  0  0  0  0  0  0  0  0  0  0
   19.4657    5.0498    2.5907 C   0  0  0  0  0  0  0  0  0  0  0  0
   20.2107    6.0426    4.5409 O   0  0  0  0  0  0  0  0  0  0  0  0
   19.6529    6.2768    1.9815 O   0  0  0  0  0  0  0  0  0  0  0  0
   19.3622    6.4045    0.6169 C   0  0  0  0  0  0  0  0  0  0  0  0
   18.5107    5.5541   -0.0165 C   0  0  0  0  0  0  0  0  0  0  0  0
   18.2430    5.7014   -1.3547 C   0  0  0  0  0  0  0  0  0  0  0  0
   18.8004    6.6918   -2.1312 C   0  0  0  0  0  0  0  0  0  0  0  0
   19.6642    7.5537   -1.4866 C   0  0  0  0  0  0  0  0  0  0  0  0
   19.9478    7.4203   -0.1312 C   0  0  0  0  0  0  0  0  0  0  0  0
   18.4898    6.8166   -3.5459 C   0  0  0  0  0  0  0  0  0  0  0  0
   17.1636    7.4447   -3.8754 C   0  0  1  0  0  0  0  0  0  0  0  0
   17.0267    8.8431   -3.4387 C   0  0  0  0  0  0  0  0  0  0  0  0
   15.9472    9.2226   -2.6178 N   0  0  0  0  0  0  0  0  0  0  0  0
   17.8566    9.7070   -3.7853 O   0  0  0  0  0  0  0  0  0  0  0  0
   15.7205   10.6123   -2.2612 C   0  0  0  0  0  0  0  0  0  0  0  0
   16.7896    7.2540   -5.1975 O   0  0  0  0  0  0  0  0  0  0  0  0
   15.7160    8.0032   -5.5975 C   0  0  0  0  0  0  0  0  0  0  0  0
   14.5663    7.0577   -5.8808 C   0  0  0  0  0  0  0  0  0  0  0  0
   20.4678    3.0656    8.3961 O   0  0  0  0  0  0  0  0  0  0  0  0
   20.8918    4.3099    8.8699 C   0  0  0  0  0  0  0  0  0  0  0  0
   15.1053    8.2609   -2.1548 O   0  0  0  0  0  0  0  0  0  0  0  0
   14.0733    8.0006   -3.0497 C   0  0  0  0  0  0  0  0  0  0  0  0
 26 27  1  0
  2 26  1  0
 28 29  1  0
 20 28  1  0
  1  2  2  0
  2  3  1  0
  3  4  2  0
  4  5  1  0
  5  6  2  0
  6  1  1  0
  4  7  1  0
  7  8  1  0
  7  9  2  0
  8 10  1  0
 10 11  1  0
 11 12  2  0
 12 13  1  0
 13 14  2  0
 14 15  1  0
 15 16  2  0
 16 11  1  0
 14 17  1  0
 18 17  1  6
 18 19  1  0
 19 20  1  0
 19 21  2  0
 20 22  1  0
 18 23  1  0
 23 24  1  0
 24 25  1  0
M  STY  2   1 SUP   2 SUP
M  SLB  2   1   1   2   2
M  SAL   1  2  26  27
M  SBL   1  1   2
M  SMT   1 OCH3
M  SBV   1   2    0.7144    0.4125
M  SAL   2  2  28  29
M  SBL   2  1   4
M  SMT   2 OCH3
M  SBV   2   4   -0.7144   -0.4125
M  END
$$$$
