
     RDKit          3D

 29 30  0  2  0  0  0  0  0  0999 V2000
   15.1782    9.6080    1.0898 C   0  0  0  0  0  0  0  0  0  0  0  0
   16.3178    8.8602    1.2453 C   0  0  0  0  0  0  0  0  0  0  0  0
   16.9029    8.2696    0.1585 C   0  0  0  0  0  0  0  0  0  0  0  0
   16.3914    8.3872   -1.1430 C   0  0  0  0  0  0  0  0  0  0  0  0
   15.2540    9.1432   -1.2444 C   0  0  0  0  0  0  0  0  0  0  0  0
   14.6311    9.7589   -0.1608 C   0  0  0  0  0  0  0  0  0  0  0  0
   17.0745    7.7291   -2.2353 C   0  0  0  0  0  0  0  0  0  0  0  0
   16.6685    7.6229   -3.6322 C   0  0  0  0  0  0  0  0  0  0  0  0
   18.2003    7.1471   -1.9675 O   0  0  0  0  0  0  0  0  0  0  0  0
   17.6029    7.1604   -4.5404 O   0  0  0  0  0  0  0  0  0  0  0  0
   17.4343    7.4660   -5.8973 C   0  0  0  0  0  0  0  0  0  0  0  0
   16.4709    6.8715   -6.6509 C   0  0  0  0  0  0  0  0  0  0  0  0
   16.3271    7.1891   -7.9785 C   0  0  0  0  0  0  0  0  0  0  0  0
   17.1241    8.1059   -8.6258 C   0  0  0  0  0  0  0  0  0  0  0  0
   18.1011    8.7079   -7.8594 C   0  0  0  0  0  0  0  0  0  0  0  0
   18.2621    8.3991   -6.5126 C   0  0  0  0  0  0  0  0  0  0  0  0
   16.9388    8.4172  -10.0337 C   0  0  0  0  0  0  0  0  0  0  0  0
   15.8672    9.4242  -10.3493 C   0  0  1  0  0  0  0  0  0  0  0  0
   16.2159   10.8122  -10.0071 C   0  0  0  0  0  0  0  0  0  0  0  0
   15.7152   11.3940   -8.8264 N   0  0  0  0  0  0  0  0  0  0  0  0
   16.9536   11.4895  -10.7501 O   0  0  0  0  0  0  0  0  0  0  0  0
   16.0601   12.7533   -8.4481 C   0  0  0  0  0  0  0  0  0  0  0  0
   15.3683    9.2959  -11.6373 O   0  0  0  0  0  0  0  0  0  0  0  0
   14.0067    9.4017  -11.7318 C   0  0  0  0  0  0  0  0  0  0  0  0
   13.6659   10.8619  -11.9502 C   0  0  0  0  0  0  0  0  0  0  0  0
   16.9179    8.6718    2.4878 O   0  0  0  0  0  0  0  0  0  0  0  0
   18.2775    8.3993    2.6606 C   0  0  0  0  0  0  0  0  0  0  0  0
   14.8926   10.6600   -8.0310 O   0  0  0  0  0  0  0  0  0  0  0  0
   13.5831   11.1265   -8.0688 C   0  0  0  0  0  0  0  0  0  0  0  0
 26 27  1  0
  2 26  1  0
 28 29  1  0
 20 28  1  0
  1  2  2  0
  2  3  1  0
  3  4  2  0
  4  5  1  0
  5  6  2  0
  6  1  1  0
  4  7  1  0
  7  8  1  0
  7  9  2  0
  8 10  1  0
 10 11  1  0
 11 12  2  0
 12 13  1  0
 13 14  2  0
 14 15  1  0
 15 16  2  0
 16 11  1  0
 14 17  1  0
 18 17  1  6
 18 19  1  0
 19 20  1  0
 19 21  2  0
 20 22  1  0
 18 23  1  0
 23 24  1  0
 24 25  1  0
M  STY  2   1 SUP   2 SUP
M  SLB  2   1   1   2   2
M  SAL   1  2  26  27
M  SBL   1  1   2
M  SMT   1 OCH3
M  SBV   1   2    0.7144    0.4125
M  SAL   2  2  28  29
M  SBL   2  1   4
M  SMT   2 OCH3
M  SBV   2   4   -0.7144   -0.4125
M  END
$$$$
