
     RDKit          3D

 41 45  0  0  0  0  0  0  0  0999 V2000
  -22.3288  -40.9713   -3.0306 C   0  0  0  0  0  0  0  0  0  0  0  0
  -22.0273  -40.7781   -4.3557 O   0  0  0  0  0  0  0  0  0  0  0  0
  -22.5948  -41.7442   -5.1742 C   0  0  0  0  0  0  0  0  0  0  0  0
  -21.6982  -42.0555   -6.3071 C   0  0  0  0  0  0  0  0  0  0  0  0
  -21.3618  -43.3306   -6.6723 C   0  0  0  0  0  0  0  0  0  0  0  0
  -20.5024  -43.6153   -7.7546 C   0  0  0  0  0  0  0  0  0  0  0  0
  -19.9563  -42.5897   -8.5097 C   0  0  0  0  0  0  0  0  0  0  0  0
  -20.2728  -41.3013   -8.1626 C   0  0  0  0  0  0  0  0  0  0  0  0
  -21.1433  -41.0614   -7.0637 C   0  0  0  0  0  0  0  0  0  0  0  0
  -19.8070  -40.0051   -8.6993 C   0  0  0  0  0  0  0  0  0  0  0  0
  -20.7434  -39.1108   -8.8569 O   0  0  0  0  0  0  0  0  0  0  0  0
  -18.5023  -39.5804   -9.0663 N   0  0  0  0  0  0  0  0  0  0  0  0
  -17.2532  -40.1938   -8.6204 C   0  0  1  0  0  0  0  0  0  0  0  0
  -16.8136  -41.2282   -9.6155 C   0  0  0  0  0  0  0  0  0  0  0  0
  -16.1663  -42.4575   -9.0760 C   0  0  0  0  0  0  0  0  0  0  0  0
  -16.6063  -43.3816   -8.1727 C   0  0  0  0  0  0  0  0  0  0  0  0
  -15.8222  -44.4970   -7.9098 C   0  0  0  0  0  0  0  0  0  0  0  0
  -14.5947  -44.6513   -8.5671 C   0  0  0  0  0  0  0  0  0  0  0  0
  -14.1076  -43.7500   -9.4790 C   0  0  0  0  0  0  0  0  0  0  0  0
  -14.9125  -42.6721   -9.7097 C   0  0  0  0  0  0  0  0  0  0  0  0
  -16.0722  -45.5480   -7.0541 O   0  0  0  0  0  0  0  0  0  0  0  0
  -17.0910  -46.4648   -6.8443 C   0  0  0  0  0  0  0  0  0  0  0  0
  -18.4558  -45.8654   -6.6038 C   0  0  0  0  0  0  0  0  0  0  0  0
  -19.2240  -45.8425   -7.8908 C   0  0  0  0  0  0  0  0  0  0  0  0
  -20.3293  -44.9827   -7.8906 O   0  0  0  0  0  0  0  0  0  0  0  0
  -16.2139  -39.1702   -8.3083 C   0  0  2  0  0  0  0  0  0  0  0  0
  -15.6640  -39.5287   -7.0590 O   0  0  0  0  0  0  0  0  0  0  0  0
  -16.6940  -37.7645   -8.1741 C   0  0  0  0  0  0  0  0  0  0  0  0
  -18.0948  -37.7558   -8.5565 N   0  0  0  0  0  0  0  0  0  0  0  0
  -18.4467  -36.7642   -9.5262 C   0  0  0  0  0  0  0  0  0  0  0  0
  -19.6466  -35.9517   -9.5149 C   0  0  0  0  0  0  0  0  0  0  0  0
  -19.6117  -37.1855  -10.3985 C   0  0  0  0  0  0  0  0  0  0  0  0
  -17.2875  -36.2732  -10.3511 C   0  0  0  0  0  0  0  0  0  0  0  0
  -16.7491  -37.0279  -11.3833 C   0  0  0  0  0  0  0  0  0  0  0  0
  -15.6957  -36.5913  -12.1512 C   0  0  0  0  0  0  0  0  0  0  0  0
  -15.1296  -35.3654  -11.9151 C   0  0  0  0  0  0  0  0  0  0  0  0
  -15.6340  -34.5804  -10.8969 C   0  0  0  0  0  0  0  0  0  0  0  0
  -16.6975  -35.0394  -10.1338 C   0  0  0  0  0  0  0  0  0  0  0  0
  -15.1622  -37.4308  -13.2340 C   0  0  0  0  0  0  0  0  0  0  0  0
  -13.7682  -37.8777  -12.8696 C   0  0  0  0  0  0  0  0  0  0  0  0
  -15.0796  -36.6818  -14.5457 C   0  0  0  0  0  0  0  0  0  0  0  0
  1  2  1  0
  2  3  1  0
  3  4  1  0
  4  5  2  0
  5  6  1  0
  6  7  2  0
  7  8  1  0
  8  9  2  0
  8 10  1  0
 10 11  2  0
 10 12  1  0
 12 13  1  0
 13 14  1  6
 14 15  1  0
 15 16  1  0
 16 17  2  0
 17 18  1  0
 18 19  2  0
 19 20  1  0
 17 21  1  0
 21 22  1  0
 22 23  1  0
 23 24  1  0
 24 25  1  0
 13 26  1  0
 26 27  1  1
 26 28  1  0
 28 29  1  0
 29 30  1  0
 30 31  1  0
 31 32  1  0
 30 33  1  0
 33 34  2  0
 34 35  1  0
 35 36  2  0
 36 37  1  0
 37 38  2  0
 35 39  1  0
 39 40  1  0
 39 41  1  0
  9  4  1  0
 20 15  2  0
 25  6  1  0
 32 30  1  0
 38 33  1  0
M  END
$$$$
