
     RDKit          3D

 41 45  0  0  0  0  0  0  0  0999 V2000
  -15.1543  -46.5945  -10.3387 C   0  0  0  0  0  0  0  0  0  0  0  0
  -14.3823  -45.9341  -11.2618 O   0  0  0  0  0  0  0  0  0  0  0  0
  -13.7359  -44.8322  -10.7203 C   0  0  0  0  0  0  0  0  0  0  0  0
  -14.4122  -43.5827  -11.1275 C   0  0  0  0  0  0  0  0  0  0  0  0
  -14.1617  -42.9425  -12.3107 C   0  0  0  0  0  0  0  0  0  0  0  0
  -14.8121  -41.7483  -12.6874 C   0  0  0  0  0  0  0  0  0  0  0  0
  -15.7550  -41.1664  -11.8552 C   0  0  0  0  0  0  0  0  0  0  0  0
  -16.0221  -41.7845  -10.6606 C   0  0  0  0  0  0  0  0  0  0  0  0
  -15.3422  -42.9870  -10.3220 C   0  0  0  0  0  0  0  0  0  0  0  0
  -16.8949  -41.3918   -9.5339 C   0  0  0  0  0  0  0  0  0  0  0  0
  -17.6040  -42.3626   -9.0280 O   0  0  0  0  0  0  0  0  0  0  0  0
  -17.0795  -40.1267   -8.9150 N   0  0  0  0  0  0  0  0  0  0  0  0
  -16.1493  -39.0022   -8.9882 C   0  0  1  0  0  0  0  0  0  0  0  0
  -16.5290  -38.1043  -10.1297 C   0  0  0  0  0  0  0  0  0  0  0  0
  -15.4174  -37.4700  -10.8935 C   0  0  0  0  0  0  0  0  0  0  0  0
  -14.3571  -38.0169  -11.5569 C   0  0  0  0  0  0  0  0  0  0  0  0
  -13.5039  -37.1854  -12.2702 C   0  0  0  0  0  0  0  0  0  0  0  0
  -13.7399  -35.8046  -12.2912 C   0  0  0  0  0  0  0  0  0  0  0  0
  -14.7879  -35.2073  -11.6386 C   0  0  0  0  0  0  0  0  0  0  0  0
  -15.6027  -36.0623  -10.9543 C   0  0  0  0  0  0  0  0  0  0  0  0
  -12.3917  -37.5187  -13.0126 O   0  0  0  0  0  0  0  0  0  0  0  0
  -12.0881  -38.3858  -14.0511 C   0  0  0  0  0  0  0  0  0  0  0  0
  -12.4290  -39.8350  -13.7992 C   0  0  0  0  0  0  0  0  0  0  0  0
  -13.7649  -40.1453  -14.4042 C   0  0  0  0  0  0  0  0  0  0  0  0
  -14.3601  -41.3184  -13.9240 O   0  0  0  0  0  0  0  0  0  0  0  0
  -16.0249  -38.3000   -7.6779 C   0  0  2  0  0  0  0  0  0  0  0  0
  -15.2676  -39.1480   -6.8416 O   0  0  0  0  0  0  0  0  0  0  0  0
  -17.3005  -38.0206   -6.9572 C   0  0  0  0  0  0  0  0  0  0  0  0
  -17.9004  -39.3048   -6.6422 N   0  0  0  0  0  0  0  0  0  0  0  0
  -19.3299  -39.3013   -6.5806 C   0  0  0  0  0  0  0  0  0  0  0  0
  -20.1291  -39.1989   -5.3760 C   0  0  0  0  0  0  0  0  0  0  0  0
  -19.8935  -40.5722   -5.9783 C   0  0  0  0  0  0  0  0  0  0  0  0
  -20.0002  -38.9630   -7.8852 C   0  0  0  0  0  0  0  0  0  0  0  0
  -21.3746  -39.0556   -8.0500 C   0  0  0  0  0  0  0  0  0  0  0  0
  -22.0034  -38.7433   -9.2319 C   0  0  0  0  0  0  0  0  0  0  0  0
  -21.2736  -38.3201  -10.3123 C   0  0  0  0  0  0  0  0  0  0  0  0
  -19.9018  -38.2134  -10.1928 C   0  0  0  0  0  0  0  0  0  0  0  0
  -19.2868  -38.5332   -8.9914 C   0  0  0  0  0  0  0  0  0  0  0  0
  -23.4641  -38.8586   -9.3541 C   0  0  0  0  0  0  0  0  0  0  0  0
  -24.0769  -37.4839   -9.2523 C   0  0  0  0  0  0  0  0  0  0  0  0
  -24.0605  -39.7132   -8.2576 C   0  0  0  0  0  0  0  0  0  0  0  0
  1  2  1  0
  2  3  1  0
  3  4  1  0
  4  5  2  0
  5  6  1  0
  6  7  2  0
  7  8  1  0
  8  9  2  0
  8 10  1  0
 10 11  2  0
 10 12  1  0
 12 13  1  0
 13 14  1  6
 14 15  1  0
 15 16  1  0
 16 17  2  0
 17 18  1  0
 18 19  2  0
 19 20  1  0
 17 21  1  0
 21 22  1  0
 22 23  1  0
 23 24  1  0
 24 25  1  0
 13 26  1  0
 26 27  1  1
 26 28  1  0
 28 29  1  0
 29 30  1  0
 30 31  1  0
 31 32  1  0
 30 33  1  0
 33 34  2  0
 34 35  1  0
 35 36  2  0
 36 37  1  0
 37 38  2  0
 35 39  1  0
 39 40  1  0
 39 41  1  0
  9  4  1  0
 20 15  2  0
 25  6  1  0
 32 30  1  0
 38 33  1  0
M  END
$$$$
