
     RDKit          3D

 41 45  0  0  0  0  0  0  0  0999 V2000
  -17.9362  -47.8626   -9.3173 C   0  0  0  0  0  0  0  0  0  0  0  0
  -18.3311  -46.9530   -8.3681 O   0  0  0  0  0  0  0  0  0  0  0  0
  -18.8644  -45.8010   -8.9282 C   0  0  0  0  0  0  0  0  0  0  0  0
  -18.8854  -44.7046   -7.9373 C   0  0  0  0  0  0  0  0  0  0  0  0
  -19.8599  -44.5680   -6.9865 C   0  0  0  0  0  0  0  0  0  0  0  0
  -19.8706  -43.5152   -6.0471 C   0  0  0  0  0  0  0  0  0  0  0  0
  -18.8681  -42.5584   -6.0494 C   0  0  0  0  0  0  0  0  0  0  0  0
  -17.8811  -42.6683   -6.9950 C   0  0  0  0  0  0  0  0  0  0  0  0
  -17.9107  -43.7462   -7.9223 C   0  0  0  0  0  0  0  0  0  0  0  0
  -16.7358  -41.7900   -7.3146 C   0  0  0  0  0  0  0  0  0  0  0  0
  -15.6152  -42.4161   -7.5463 O   0  0  0  0  0  0  0  0  0  0  0  0
  -16.6649  -40.3748   -7.4123 N   0  0  0  0  0  0  0  0  0  0  0  0
  -17.8025  -39.4798   -7.6134 C   0  0  1  0  0  0  0  0  0  0  0  0
  -18.3178  -39.0095   -6.2842 C   0  0  0  0  0  0  0  0  0  0  0  0
  -19.7923  -38.8384   -6.1496 C   0  0  0  0  0  0  0  0  0  0  0  0
  -20.8193  -39.7174   -6.3394 C   0  0  0  0  0  0  0  0  0  0  0  0
  -22.1169  -39.3128   -6.0551 C   0  0  0  0  0  0  0  0  0  0  0  0
  -22.3504  -38.0130   -5.5874 C   0  0  0  0  0  0  0  0  0  0  0  0
  -21.3539  -37.0929   -5.3843 C   0  0  0  0  0  0  0  0  0  0  0  0
  -20.0949  -37.5345   -5.6723 C   0  0  0  0  0  0  0  0  0  0  0  0
  -23.2894  -40.0292   -6.1616 O   0  0  0  0  0  0  0  0  0  0  0  0
  -23.7821  -41.2418   -5.7040 C   0  0  0  0  0  0  0  0  0  0  0  0
  -22.9427  -42.4484   -6.0494 C   0  0  0  0  0  0  0  0  0  0  0  0
  -22.0484  -42.7810   -4.8933 C   0  0  0  0  0  0  0  0  0  0  0  0
  -20.9728  -43.6181   -5.2149 O   0  0  0  0  0  0  0  0  0  0  0  0
  -17.4785  -38.3773   -8.5645 C   0  0  2  0  0  0  0  0  0  0  0  0
  -18.6582  -38.1226   -9.2961 O   0  0  0  0  0  0  0  0  0  0  0  0
  -16.4107  -38.6641   -9.5656 C   0  0  0  0  0  0  0  0  0  0  0  0
  -15.2072  -38.9897   -8.8213 N   0  0  0  0  0  0  0  0  0  0  0  0
  -14.2761  -39.8226   -9.5189 C   0  0  0  0  0  0  0  0  0  0  0  0
  -14.1556  -41.2606   -9.3857 C   0  0  0  0  0  0  0  0  0  0  0  0
  -13.1930  -40.3752   -8.6152 C   0  0  0  0  0  0  0  0  0  0  0  0
  -13.6956  -39.1923  -10.7564 C   0  0  0  0  0  0  0  0  0  0  0  0
  -13.5157  -37.8211  -10.8665 C   0  0  0  0  0  0  0  0  0  0  0  0
  -12.9801  -37.2300  -11.9861 C   0  0  0  0  0  0  0  0  0  0  0  0
  -12.5973  -37.9963  -13.0562 C   0  0  0  0  0  0  0  0  0  0  0  0
  -12.7584  -39.3664  -12.9899 C   0  0  0  0  0  0  0  0  0  0  0  0
  -13.3008  -39.9431  -11.8509 C   0  0  0  0  0  0  0  0  0  0  0  0
  -12.8107  -35.7709  -12.0519 C   0  0  0  0  0  0  0  0  0  0  0  0
  -11.7895  -35.3468  -11.0257 C   0  0  0  0  0  0  0  0  0  0  0  0
  -14.0985  -35.0352  -11.7542 C   0  0  0  0  0  0  0  0  0  0  0  0
  1  2  1  0
  2  3  1  0
  3  4  1  0
  4  5  2  0
  5  6  1  0
  6  7  2  0
  7  8  1  0
  8  9  2  0
  8 10  1  0
 10 11  2  0
 10 12  1  0
 12 13  1  0
 13 14  1  1
 14 15  1  0
 15 16  1  0
 16 17  2  0
 17 18  1  0
 18 19  2  0
 19 20  1  0
 17 21  1  0
 21 22  1  0
 22 23  1  0
 23 24  1  0
 24 25  1  0
 13 26  1  0
 26 27  1  6
 26 28  1  0
 28 29  1  0
 29 30  1  0
 30 31  1  0
 31 32  1  0
 30 33  1  0
 33 34  2  0
 34 35  1  0
 35 36  2  0
 36 37  1  0
 37 38  2  0
 35 39  1  0
 39 40  1  0
 39 41  1  0
  9  4  1  0
 20 15  2  0
 25  6  1  0
 32 30  1  0
 38 33  1  0
M  END
$$$$
