
     RDKit          3D

 41 45  0  0  0  0  0  0  0  0999 V2000
  -17.9392  -48.8444   -8.5327 C   0  0  0  0  0  0  0  0  0  0  0  0
  -18.2888  -47.9602   -7.5426 O   0  0  0  0  0  0  0  0  0  0  0  0
  -17.2817  -47.0454   -7.2700 C   0  0  0  0  0  0  0  0  0  0  0  0
  -17.3681  -45.8904   -8.1882 C   0  0  0  0  0  0  0  0  0  0  0  0
  -16.7070  -45.8291   -9.3847 C   0  0  0  0  0  0  0  0  0  0  0  0
  -16.7953  -44.7195  -10.2519 C   0  0  0  0  0  0  0  0  0  0  0  0
  -17.5769  -43.6248   -9.9186 C   0  0  0  0  0  0  0  0  0  0  0  0
  -18.2468  -43.6576   -8.7225 C   0  0  0  0  0  0  0  0  0  0  0  0
  -18.1284  -44.7971   -7.8797 C   0  0  0  0  0  0  0  0  0  0  0  0
  -19.0830  -42.6436   -8.0459 C   0  0  0  0  0  0  0  0  0  0  0  0
  -20.1750  -43.1086   -7.5049 O   0  0  0  0  0  0  0  0  0  0  0  0
  -18.8827  -41.2461   -7.8898 N   0  0  0  0  0  0  0  0  0  0  0  0
  -17.6026  -40.5527   -8.0158 C   0  0  1  0  0  0  0  0  0  0  0  0
  -17.4284  -40.0631   -9.4242 C   0  0  0  0  0  0  0  0  0  0  0  0
  -16.0516  -40.1078   -9.9931 C   0  0  0  0  0  0  0  0  0  0  0  0
  -15.1774  -41.1445  -10.1486 C   0  0  0  0  0  0  0  0  0  0  0  0
  -13.9716  -40.9206  -10.7999 C   0  0  0  0  0  0  0  0  0  0  0  0
  -13.6702  -39.6386  -11.2778 C   0  0  0  0  0  0  0  0  0  0  0  0
  -14.5127  -38.5648  -11.1430 C   0  0  0  0  0  0  0  0  0  0  0  0
  -15.6874  -38.8314  -10.5010 C   0  0  0  0  0  0  0  0  0  0  0  0
  -12.9576  -41.8127  -11.0739 O   0  0  0  0  0  0  0  0  0  0  0  0
  -12.8323  -43.0463  -11.6945 C   0  0  0  0  0  0  0  0  0  0  0  0
  -13.7240  -44.1349  -11.1471 C   0  0  0  0  0  0  0  0  0  0  0  0
  -14.9608  -44.2361  -11.9881 C   0  0  0  0  0  0  0  0  0  0  0  0
  -16.0196  -44.9228  -11.3811 O   0  0  0  0  0  0  0  0  0  0  0  0
  -17.4428  -39.4920   -6.9793 C   0  0  2  0  0  0  0  0  0  0  0  0
  -16.3793  -39.9040   -6.1480 O   0  0  0  0  0  0  0  0  0  0  0  0
  -18.6156  -39.2616   -6.0870 C   0  0  0  0  0  0  0  0  0  0  0  0
  -19.5281  -40.3728   -6.2897 N   0  0  0  0  0  0  0  0  0  0  0  0
  -20.7290  -40.3132   -5.5141 C   0  0  0  0  0  0  0  0  0  0  0  0
  -20.8518  -40.6477   -4.1093 C   0  0  0  0  0  0  0  0  0  0  0  0
  -21.2548  -41.6846   -5.1421 C   0  0  0  0  0  0  0  0  0  0  0  0
  -21.8069  -39.4522   -6.1160 C   0  0  0  0  0  0  0  0  0  0  0  0
  -21.8494  -39.1716   -7.4740 C   0  0  0  0  0  0  0  0  0  0  0  0
  -22.8308  -38.3936   -8.0411 C   0  0  0  0  0  0  0  0  0  0  0  0
  -23.8234  -37.8570   -7.2629 C   0  0  0  0  0  0  0  0  0  0  0  0
  -23.8201  -38.1106   -5.9052 C   0  0  0  0  0  0  0  0  0  0  0  0
  -22.8209  -38.8982   -5.3528 C   0  0  0  0  0  0  0  0  0  0  0  0
  -22.8299  -38.1265   -9.4870 C   0  0  0  0  0  0  0  0  0  0  0  0
  -22.4858  -39.3979  -10.2226 C   0  0  0  0  0  0  0  0  0  0  0  0
  -21.8080  -37.0792   -9.8708 C   0  0  0  0  0  0  0  0  0  0  0  0
  1  2  1  0
  2  3  1  0
  3  4  1  0
  4  5  2  0
  5  6  1  0
  6  7  2  0
  7  8  1  0
  8  9  2  0
  8 10  1  0
 10 11  2  0
 10 12  1  0
 12 13  1  0
 13 14  1  6
 14 15  1  0
 15 16  1  0
 16 17  2  0
 17 18  1  0
 18 19  2  0
 19 20  1  0
 17 21  1  0
 21 22  1  0
 22 23  1  0
 23 24  1  0
 24 25  1  0
 13 26  1  0
 26 27  1  1
 26 28  1  0
 28 29  1  0
 29 30  1  0
 30 31  1  0
 31 32  1  0
 30 33  1  0
 33 34  2  0
 34 35  1  0
 35 36  2  0
 36 37  1  0
 37 38  2  0
 35 39  1  0
 39 40  1  0
 39 41  1  0
  9  4  1  0
 20 15  2  0
 25  6  1  0
 32 30  1  0
 38 33  1  0
M  END
$$$$
