
     RDKit          3D

 41 45  0  0  0  0  0  0  0  0999 V2000
  -21.2493  -40.6971  -13.5793 C   0  0  0  0  0  0  0  0  0  0  0  0
  -20.0534  -41.2931  -13.2647 O   0  0  0  0  0  0  0  0  0  0  0  0
  -20.2216  -42.5288  -12.6563 C   0  0  0  0  0  0  0  0  0  0  0  0
  -19.9822  -42.4272  -11.2014 C   0  0  0  0  0  0  0  0  0  0  0  0
  -20.9457  -42.6726  -10.2613 C   0  0  0  0  0  0  0  0  0  0  0  0
  -20.7058  -42.5697   -8.8746 C   0  0  0  0  0  0  0  0  0  0  0  0
  -19.4540  -42.2114   -8.4005 C   0  0  0  0  0  0  0  0  0  0  0  0
  -18.4706  -41.9549   -9.3212 C   0  0  0  0  0  0  0  0  0  0  0  0
  -18.7577  -42.0708  -10.7094 C   0  0  0  0  0  0  0  0  0  0  0  0
  -17.0797  -41.4827   -9.1554 C   0  0  0  0  0  0  0  0  0  0  0  0
  -16.2025  -42.0938   -9.9028 O   0  0  0  0  0  0  0  0  0  0  0  0
  -16.5501  -40.4679   -8.3145 N   0  0  0  0  0  0  0  0  0  0  0  0
  -17.3167  -39.3803   -7.7105 C   0  0  1  0  0  0  0  0  0  0  0  0
  -17.7756  -39.7848   -6.3396 C   0  0  0  0  0  0  0  0  0  0  0  0
  -19.1232  -39.3158   -5.9088 C   0  0  0  0  0  0  0  0  0  0  0  0
  -20.3553  -39.4861   -6.4710 C   0  0  0  0  0  0  0  0  0  0  0  0
  -21.4753  -39.0090   -5.8030 C   0  0  0  0  0  0  0  0  0  0  0  0
  -21.3223  -38.3573   -4.5723 C   0  0  0  0  0  0  0  0  0  0  0  0
  -20.1069  -38.1585   -3.9687 C   0  0  0  0  0  0  0  0  0  0  0  0
  -19.0348  -38.6470   -4.6580 C   0  0  0  0  0  0  0  0  0  0  0  0
  -22.8003  -39.0795   -6.1755 O   0  0  0  0  0  0  0  0  0  0  0  0
  -23.6961  -40.0677   -6.5542 C   0  0  0  0  0  0  0  0  0  0  0  0
  -23.2594  -40.9176   -7.7232 C   0  0  0  0  0  0  0  0  0  0  0  0
  -22.6310  -42.1799   -7.2147 C   0  0  0  0  0  0  0  0  0  0  0  0
  -21.8554  -42.8627   -8.1598 O   0  0  0  0  0  0  0  0  0  0  0  0
  -16.5691  -38.0899   -7.7451 C   0  0  2  0  0  0  0  0  0  0  0  0
  -17.5363  -37.0729   -7.8949 O   0  0  0  0  0  0  0  0  0  0  0  0
  -15.5981  -37.9216   -8.8647 C   0  0  0  0  0  0  0  0  0  0  0  0
  -14.6808  -39.0456   -8.8038 N   0  0  0  0  0  0  0  0  0  0  0  0
  -13.7746  -39.1420   -9.9069 C   0  0  0  0  0  0  0  0  0  0  0  0
  -13.4673  -40.3460  -10.6526 C   0  0  0  0  0  0  0  0  0  0  0  0
  -12.5101  -39.9016   -9.5616 C   0  0  0  0  0  0  0  0  0  0  0  0
  -13.4657  -37.8240  -10.5650 C   0  0  0  0  0  0  0  0  0  0  0  0
  -13.0100  -37.7456  -11.8730 C   0  0  0  0  0  0  0  0  0  0  0  0
  -12.7304  -36.5501  -12.4915 C   0  0  0  0  0  0  0  0  0  0  0  0
  -12.8973  -35.3678  -11.8181 C   0  0  0  0  0  0  0  0  0  0  0  0
  -13.3492  -35.3989  -10.5134 C   0  0  0  0  0  0  0  0  0  0  0  0
  -13.6257  -36.6157   -9.9077 C   0  0  0  0  0  0  0  0  0  0  0  0
  -12.2495  -36.5222  -13.8807 C   0  0  0  0  0  0  0  0  0  0  0  0
  -11.6538  -37.8654  -14.2228 C   0  0  0  0  0  0  0  0  0  0  0  0
  -11.1786  -35.4746  -14.0905 C   0  0  0  0  0  0  0  0  0  0  0  0
  1  2  1  0
  2  3  1  0
  3  4  1  0
  4  5  2  0
  5  6  1  0
  6  7  2  0
  7  8  1  0
  8  9  2  0
  8 10  1  0
 10 11  2  0
 10 12  1  0
 12 13  1  0
 13 14  1  1
 14 15  1  0
 15 16  1  0
 16 17  2  0
 17 18  1  0
 18 19  2  0
 19 20  1  0
 17 21  1  0
 21 22  1  0
 22 23  1  0
 23 24  1  0
 24 25  1  0
 13 26  1  0
 26 27  1  6
 26 28  1  0
 28 29  1  0
 29 30  1  0
 30 31  1  0
 31 32  1  0
 30 33  1  0
 33 34  2  0
 34 35  1  0
 35 36  2  0
 36 37  1  0
 37 38  2  0
 35 39  1  0
 39 40  1  0
 39 41  1  0
  9  4  1  0
 20 15  2  0
 25  6  1  0
 32 30  1  0
 38 33  1  0
M  END
$$$$
