
     RDKit          3D

 41 45  0  0  0  0  0  0  0  0999 V2000
  -18.4107  -48.5910   -6.7800 C   0  0  0  0  0  0  0  0  0  0  0  0
  -18.3461  -47.3498   -7.3628 O   0  0  0  0  0  0  0  0  0  0  0  0
  -19.5950  -46.7586   -7.4893 C   0  0  0  0  0  0  0  0  0  0  0  0
  -19.5954  -45.4122   -6.8796 C   0  0  0  0  0  0  0  0  0  0  0  0
  -20.5383  -44.9935   -5.9806 C   0  0  0  0  0  0  0  0  0  0  0  0
  -20.5296  -43.7043   -5.4070 C   0  0  0  0  0  0  0  0  0  0  0  0
  -19.5397  -42.7925   -5.7372 C   0  0  0  0  0  0  0  0  0  0  0  0
  -18.5845  -43.1843   -6.6398 C   0  0  0  0  0  0  0  0  0  0  0  0
  -18.6327  -44.4938   -7.1929 C   0  0  0  0  0  0  0  0  0  0  0  0
  -17.4617  -42.4440   -7.2534 C   0  0  0  0  0  0  0  0  0  0  0  0
  -16.3421  -43.1095   -7.3240 O   0  0  0  0  0  0  0  0  0  0  0  0
  -17.4117  -41.1258   -7.7802 N   0  0  0  0  0  0  0  0  0  0  0  0
  -18.5664  -40.3362   -8.2027 C   0  0  1  0  0  0  0  0  0  0  0  0
  -19.0415  -39.4836   -7.0622 C   0  0  0  0  0  0  0  0  0  0  0  0
  -20.5125  -39.2815   -6.9323 C   0  0  0  0  0  0  0  0  0  0  0  0
  -21.5345  -40.1777   -6.8077 C   0  0  0  0  0  0  0  0  0  0  0  0
  -22.8265  -39.7074   -6.6130 C   0  0  0  0  0  0  0  0  0  0  0  0
  -23.0598  -38.3271   -6.5554 C   0  0  0  0  0  0  0  0  0  0  0  0
  -22.0683  -37.3876   -6.6789 C   0  0  0  0  0  0  0  0  0  0  0  0
  -20.8145  -37.8945   -6.8643 C   0  0  0  0  0  0  0  0  0  0  0  0
  -23.9930  -40.4236   -6.4532 O   0  0  0  0  0  0  0  0  0  0  0  0
  -24.4547  -41.4395   -5.6303 C   0  0  0  0  0  0  0  0  0  0  0  0
  -23.6129  -42.6928   -5.6220 C   0  0  0  0  0  0  0  0  0  0  0  0
  -22.6754  -42.6560   -4.4530 C   0  0  0  0  0  0  0  0  0  0  0  0
  -21.6012  -43.5499   -4.5433 O   0  0  0  0  0  0  0  0  0  0  0  0
  -18.2890  -39.5758   -9.4557 C   0  0  2  0  0  0  0  0  0  0  0  0
  -19.1988  -40.0549  -10.4224 O   0  0  0  0  0  0  0  0  0  0  0  0
  -16.9252  -39.7400  -10.0369 C   0  0  0  0  0  0  0  0  0  0  0  0
  -16.0512  -40.1620   -8.9568 N   0  0  0  0  0  0  0  0  0  0  0  0
  -14.6928  -39.7294   -9.0793 C   0  0  0  0  0  0  0  0  0  0  0  0
  -13.5496  -40.3164   -8.4095 C   0  0  0  0  0  0  0  0  0  0  0  0
  -14.1740  -39.0643   -7.8208 C   0  0  0  0  0  0  0  0  0  0  0  0
  -14.4230  -38.8906  -10.2996 C   0  0  0  0  0  0  0  0  0  0  0  0
  -13.2264  -38.2102  -10.4727 C   0  0  0  0  0  0  0  0  0  0  0  0
  -12.9608  -37.4461  -11.5842 C   0  0  0  0  0  0  0  0  0  0  0  0
  -13.8936  -37.3294  -12.5818 C   0  0  0  0  0  0  0  0  0  0  0  0
  -15.0994  -37.9901  -12.4510 C   0  0  0  0  0  0  0  0  0  0  0  0
  -15.3476  -38.7561  -11.3216 C   0  0  0  0  0  0  0  0  0  0  0  0
  -11.6756  -36.7446  -11.7188 C   0  0  0  0  0  0  0  0  0  0  0  0
  -10.5655  -37.6584  -11.2623 C   0  0  0  0  0  0  0  0  0  0  0  0
  -11.6206  -35.4918  -10.8726 C   0  0  0  0  0  0  0  0  0  0  0  0
  1  2  1  0
  2  3  1  0
  3  4  1  0
  4  5  2  0
  5  6  1  0
  6  7  2  0
  7  8  1  0
  8  9  2  0
  8 10  1  0
 10 11  2  0
 10 12  1  0
 12 13  1  0
 13 14  1  1
 14 15  1  0
 15 16  1  0
 16 17  2  0
 17 18  1  0
 18 19  2  0
 19 20  1  0
 17 21  1  0
 21 22  1  0
 22 23  1  0
 23 24  1  0
 24 25  1  0
 13 26  1  0
 26 27  1  6
 26 28  1  0
 28 29  1  0
 29 30  1  0
 30 31  1  0
 31 32  1  0
 30 33  1  0
 33 34  2  0
 34 35  1  0
 35 36  2  0
 36 37  1  0
 37 38  2  0
 35 39  1  0
 39 40  1  0
 39 41  1  0
  9  4  1  0
 20 15  2  0
 25  6  1  0
 32 30  1  0
 38 33  1  0
M  END
$$$$
