
     RDKit          3D

 41 45  0  0  0  0  0  0  0  0999 V2000
  -23.3427  -40.1193   -2.1585 C   0  0  0  0  0  0  0  0  0  0  0  0
  -23.2081  -40.7490   -3.3707 O   0  0  0  0  0  0  0  0  0  0  0  0
  -22.3888  -41.8666   -3.2987 C   0  0  0  0  0  0  0  0  0  0  0  0
  -21.2316  -41.7203   -4.2065 C   0  0  0  0  0  0  0  0  0  0  0  0
  -20.2369  -40.8003   -4.0155 C   0  0  0  0  0  0  0  0  0  0  0  0
  -19.1380  -40.6683   -4.8908 C   0  0  0  0  0  0  0  0  0  0  0  0
  -19.0196  -41.4879   -6.0020 C   0  0  0  0  0  0  0  0  0  0  0  0
  -20.0053  -42.4159   -6.2203 C   0  0  0  0  0  0  0  0  0  0  0  0
  -21.0950  -42.5134   -5.3115 C   0  0  0  0  0  0  0  0  0  0  0  0
  -20.2178  -43.3690   -7.3301 C   0  0  0  0  0  0  0  0  0  0  0  0
  -20.5889  -44.5637   -6.9608 O   0  0  0  0  0  0  0  0  0  0  0  0
  -20.0849  -43.1875   -8.7326 N   0  0  0  0  0  0  0  0  0  0  0  0
  -20.0957  -41.9017   -9.4269 C   0  0  1  0  0  0  0  0  0  0  0  0
  -18.6898  -41.3997   -9.5847 C   0  0  0  0  0  0  0  0  0  0  0  0
  -18.4761  -39.9297   -9.4630 C   0  0  0  0  0  0  0  0  0  0  0  0
  -18.7702  -39.0601   -8.4528 C   0  0  0  0  0  0  0  0  0  0  0  0
  -18.3771  -37.7332   -8.5667 C   0  0  0  0  0  0  0  0  0  0  0  0
  -17.6948  -37.3090   -9.7144 C   0  0  0  0  0  0  0  0  0  0  0  0
  -17.3797  -38.1424  -10.7571 C   0  0  0  0  0  0  0  0  0  0  0  0
  -17.7812  -39.4376  -10.6008 C   0  0  0  0  0  0  0  0  0  0  0  0
  -18.5572  -36.6979   -7.6750 O   0  0  0  0  0  0  0  0  0  0  0  0
  -18.2870  -36.4529   -6.3373 C   0  0  0  0  0  0  0  0  0  0  0  0
  -18.8552  -37.4643   -5.3709 C   0  0  0  0  0  0  0  0  0  0  0  0
  -17.8020  -38.4754   -5.0309 C   0  0  0  0  0  0  0  0  0  0  0  0
  -18.2948  -39.6566   -4.4625 O   0  0  0  0  0  0  0  0  0  0  0  0
  -20.8644  -41.9680  -10.7035 C   0  0  2  0  0  0  0  0  0  0  0  0
  -21.7063  -40.8354  -10.7210 O   0  0  0  0  0  0  0  0  0  0  0  0
  -21.7475  -43.1572  -10.8791 C   0  0  0  0  0  0  0  0  0  0  0  0
  -21.1481  -44.2458  -10.1281 N   0  0  0  0  0  0  0  0  0  0  0  0
  -21.3000  -45.5394  -10.7204 C   0  0  0  0  0  0  0  0  0  0  0  0
  -20.5017  -46.7112  -10.4208 C   0  0  0  0  0  0  0  0  0  0  0  0
  -20.1603  -45.8940  -11.6536 C   0  0  0  0  0  0  0  0  0  0  0  0
  -22.6383  -45.7633  -11.3720 C   0  0  0  0  0  0  0  0  0  0  0  0
  -23.2003  -44.8321  -12.2333 C   0  0  0  0  0  0  0  0  0  0  0  0
  -24.4176  -45.0240  -12.8425 C   0  0  0  0  0  0  0  0  0  0  0  0
  -25.1327  -46.1707  -12.6122 C   0  0  0  0  0  0  0  0  0  0  0  0
  -24.6108  -47.1252  -11.7613 C   0  0  0  0  0  0  0  0  0  0  0  0
  -23.3807  -46.9122  -11.1567 C   0  0  0  0  0  0  0  0  0  0  0  0
  -24.9690  -44.0048  -13.7475 C   0  0  0  0  0  0  0  0  0  0  0  0
  -26.2753  -43.5016  -13.1852 C   0  0  0  0  0  0  0  0  0  0  0  0
  -25.2429  -44.5591  -15.1282 C   0  0  0  0  0  0  0  0  0  0  0  0
  1  2  1  0
  2  3  1  0
  3  4  1  0
  4  5  2  0
  5  6  1  0
  6  7  2  0
  7  8  1  0
  8  9  2  0
  8 10  1  0
 10 11  2  0
 10 12  1  0
 12 13  1  0
 13 14  1  6
 14 15  1  0
 15 16  1  0
 16 17  2  0
 17 18  1  0
 18 19  2  0
 19 20  1  0
 17 21  1  0
 21 22  1  0
 22 23  1  0
 23 24  1  0
 24 25  1  0
 13 26  1  0
 26 27  1  1
 26 28  1  0
 28 29  1  0
 29 30  1  0
 30 31  1  0
 31 32  1  0
 30 33  1  0
 33 34  2  0
 34 35  1  0
 35 36  2  0
 36 37  1  0
 37 38  2  0
 35 39  1  0
 39 40  1  0
 39 41  1  0
  9  4  1  0
 20 15  2  0
 25  6  1  0
 32 30  1  0
 38 33  1  0
M  END
$$$$
