
     RDKit          3D

 41 45  0  0  0  0  0  0  0  0999 V2000
  -16.6455  -45.1516  -11.8124 C   0  0  0  0  0  0  0  0  0  0  0  0
  -15.4697  -45.2763  -11.1152 O   0  0  0  0  0  0  0  0  0  0  0  0
  -14.7991  -44.0683  -10.9877 C   0  0  0  0  0  0  0  0  0  0  0  0
  -15.7140  -42.9374  -11.2492 C   0  0  0  0  0  0  0  0  0  0  0  0
  -15.5207  -42.0301  -12.2551 C   0  0  0  0  0  0  0  0  0  0  0  0
  -16.4001  -40.9526  -12.4934 C   0  0  0  0  0  0  0  0  0  0  0  0
  -17.5222  -40.7702  -11.7011 C   0  0  0  0  0  0  0  0  0  0  0  0
  -17.7377  -41.6623  -10.6822 C   0  0  0  0  0  0  0  0  0  0  0  0
  -16.8245  -42.7335  -10.4787 C   0  0  0  0  0  0  0  0  0  0  0  0
  -18.7727  -41.7056   -9.6275 C   0  0  0  0  0  0  0  0  0  0  0  0
  -19.2730  -42.8888   -9.4013 O   0  0  0  0  0  0  0  0  0  0  0  0
  -19.3042  -40.6640   -8.8213 N   0  0  0  0  0  0  0  0  0  0  0  0
  -18.6638  -39.3749   -8.5691 C   0  0  1  0  0  0  0  0  0  0  0  0
  -19.1450  -38.3658   -9.5708 C   0  0  0  0  0  0  0  0  0  0  0  0
  -18.1533  -37.3646  -10.0561 C   0  0  0  0  0  0  0  0  0  0  0  0
  -16.9405  -37.5229  -10.6621 C   0  0  0  0  0  0  0  0  0  0  0  0
  -16.2499  -36.3993  -11.0968 C   0  0  0  0  0  0  0  0  0  0  0  0
  -16.8031  -35.1273  -10.9004 C   0  0  0  0  0  0  0  0  0  0  0  0
  -18.0151  -34.9160  -10.2942 C   0  0  0  0  0  0  0  0  0  0  0  0
  -18.6605  -36.0478   -9.8872 C   0  0  0  0  0  0  0  0  0  0  0  0
  -15.0305  -36.3264  -11.7347 O   0  0  0  0  0  0  0  0  0  0  0  0
  -14.4417  -36.8766  -12.8631 C   0  0  0  0  0  0  0  0  0  0  0  0
  -14.4505  -38.3853  -12.9221 C   0  0  0  0  0  0  0  0  0  0  0  0
  -15.6176  -38.8453  -13.7426 C   0  0  0  0  0  0  0  0  0  0  0  0
  -15.9574  -40.1919  -13.5628 O   0  0  0  0  0  0  0  0  0  0  0  0
  -18.8228  -38.9458   -7.1493 C   0  0  2  0  0  0  0  0  0  0  0  0
  -17.5244  -38.6753   -6.6668 O   0  0  0  0  0  0  0  0  0  0  0  0
  -19.4209  -39.9489   -6.2216 C   0  0  0  0  0  0  0  0  0  0  0  0
  -20.8277  -40.0585   -6.5643 N   0  0  0  0  0  0  0  0  0  0  0  0
  -21.3789  -41.3718   -6.4272 C   0  0  0  0  0  0  0  0  0  0  0  0
  -21.0727  -42.5144   -7.2644 C   0  0  0  0  0  0  0  0  0  0  0  0
  -22.3379  -41.7243   -7.5460 C   0  0  0  0  0  0  0  0  0  0  0  0
  -21.9809  -41.6472   -5.0755 C   0  0  0  0  0  0  0  0  0  0  0  0
  -21.7179  -40.8419   -3.9769 C   0  0  0  0  0  0  0  0  0  0  0  0
  -22.2652  -41.0747   -2.7375 C   0  0  0  0  0  0  0  0  0  0  0  0
  -23.1095  -42.1370   -2.5432 C   0  0  0  0  0  0  0  0  0  0  0  0
  -23.3991  -42.9654   -3.6097 C   0  0  0  0  0  0  0  0  0  0  0  0
  -22.8365  -42.7129   -4.8522 C   0  0  0  0  0  0  0  0  0  0  0  0
  -21.9537  -40.1901   -1.6052 C   0  0  0  0  0  0  0  0  0  0  0  0
  -22.1183  -38.7553   -2.0413 C   0  0  0  0  0  0  0  0  0  0  0  0
  -20.5314  -40.3659   -1.1210 C   0  0  0  0  0  0  0  0  0  0  0  0
  1  2  1  0
  2  3  1  0
  3  4  1  0
  4  5  2  0
  5  6  1  0
  6  7  2  0
  7  8  1  0
  8  9  2  0
  8 10  1  0
 10 11  2  0
 10 12  1  0
 12 13  1  0
 13 14  1  6
 14 15  1  0
 15 16  1  0
 16 17  2  0
 17 18  1  0
 18 19  2  0
 19 20  1  0
 17 21  1  0
 21 22  1  0
 22 23  1  0
 23 24  1  0
 24 25  1  0
 13 26  1  0
 26 27  1  1
 26 28  1  0
 28 29  1  0
 29 30  1  0
 30 31  1  0
 31 32  1  0
 30 33  1  0
 33 34  2  0
 34 35  1  0
 35 36  2  0
 36 37  1  0
 37 38  2  0
 35 39  1  0
 39 40  1  0
 39 41  1  0
  9  4  1  0
 20 15  2  0
 25  6  1  0
 32 30  1  0
 38 33  1  0
M  END
$$$$
