
     RDKit          3D

 41 45  0  0  0  0  0  0  0  0999 V2000
  -21.4266  -34.1999   -9.4702 C   0  0  0  0  0  0  0  0  0  0  0  0
  -20.6758  -35.2548   -9.9257 O   0  0  0  0  0  0  0  0  0  0  0  0
  -21.4431  -36.2064  -10.5822 C   0  0  0  0  0  0  0  0  0  0  0  0
  -21.0745  -37.5667  -10.1369 C   0  0  0  0  0  0  0  0  0  0  0  0
  -21.9817  -38.4753   -9.6638 C   0  0  0  0  0  0  0  0  0  0  0  0
  -21.6172  -39.7706   -9.2390 C   0  0  0  0  0  0  0  0  0  0  0  0
  -20.2953  -40.1832   -9.2897 C   0  0  0  0  0  0  0  0  0  0  0  0
  -19.3641  -39.2906   -9.7553 C   0  0  0  0  0  0  0  0  0  0  0  0
  -19.7769  -37.9952  -10.1727 C   0  0  0  0  0  0  0  0  0  0  0  0
  -17.8925  -39.3838   -9.8609 C   0  0  0  0  0  0  0  0  0  0  0  0
  -17.3944  -38.9228  -10.9748 O   0  0  0  0  0  0  0  0  0  0  0  0
  -16.9377  -39.8923   -8.9404 N   0  0  0  0  0  0  0  0  0  0  0  0
  -17.1539  -40.0740   -7.5067 C   0  0  1  0  0  0  0  0  0  0  0  0
  -17.6324  -41.4716   -7.2399 C   0  0  0  0  0  0  0  0  0  0  0  0
  -18.6407  -41.6488   -6.1566 C   0  0  0  0  0  0  0  0  0  0  0  0
  -19.8756  -41.0947   -5.9798 C   0  0  0  0  0  0  0  0  0  0  0  0
  -20.6551  -41.5080   -4.9076 C   0  0  0  0  0  0  0  0  0  0  0  0
  -20.1608  -42.4770   -4.0247 C   0  0  0  0  0  0  0  0  0  0  0  0
  -18.9265  -43.0603   -4.1573 C   0  0  0  0  0  0  0  0  0  0  0  0
  -18.1969  -42.6275   -5.2267 C   0  0  0  0  0  0  0  0  0  0  0  0
  -21.9202  -41.0963   -4.5481 O   0  0  0  0  0  0  0  0  0  0  0  0
  -23.1638  -40.9947   -5.1530 C   0  0  0  0  0  0  0  0  0  0  0  0
  -23.1954  -40.1828   -6.4256 C   0  0  0  0  0  0  0  0  0  0  0  0
  -23.0919  -41.1013   -7.6056 C   0  0  0  0  0  0  0  0  0  0  0  0
  -22.7302  -40.4694   -8.8018 O   0  0  0  0  0  0  0  0  0  0  0  0
  -15.9551  -39.6796   -6.7114 C   0  0  2  0  0  0  0  0  0  0  0  0
  -16.3716  -38.6413   -5.8509 O   0  0  0  0  0  0  0  0  0  0  0  0
  -14.7959  -39.1504   -7.4866 C   0  0  0  0  0  0  0  0  0  0  0  0
  -15.1394  -39.2613   -8.8931 N   0  0  0  0  0  0  0  0  0  0  0  0
  -14.6261  -38.2136   -9.7213 C   0  0  0  0  0  0  0  0  0  0  0  0
  -14.2332  -36.8919   -9.2753 C   0  0  0  0  0  0  0  0  0  0  0  0
  -15.6064  -37.0718   -9.8966 C   0  0  0  0  0  0  0  0  0  0  0  0
  -14.0847  -38.6857  -11.0441 C   0  0  0  0  0  0  0  0  0  0  0  0
  -13.7002  -37.7983  -12.0387 C   0  0  0  0  0  0  0  0  0  0  0  0
  -13.1969  -38.2123  -13.2492 C   0  0  0  0  0  0  0  0  0  0  0  0
  -13.0557  -39.5489  -13.5183 C   0  0  0  0  0  0  0  0  0  0  0  0
  -13.4262  -40.4680  -12.5563 C   0  0  0  0  0  0  0  0  0  0  0  0
  -13.9318  -40.0295  -11.3414 C   0  0  0  0  0  0  0  0  0  0  0  0
  -12.8038  -37.2299  -14.2701 C   0  0  0  0  0  0  0  0  0  0  0  0
  -13.4909  -37.5685  -15.5698 C   0  0  0  0  0  0  0  0  0  0  0  0
  -11.3119  -37.2363  -14.5205 C   0  0  0  0  0  0  0  0  0  0  0  0
  1  2  1  0
  2  3  1  0
  3  4  1  0
  4  5  2  0
  5  6  1  0
  6  7  2  0
  7  8  1  0
  8  9  2  0
  8 10  1  0
 10 11  2  0
 10 12  1  0
 12 13  1  0
 13 14  1  6
 14 15  1  0
 15 16  1  0
 16 17  2  0
 17 18  1  0
 18 19  2  0
 19 20  1  0
 17 21  1  0
 21 22  1  0
 22 23  1  0
 23 24  1  0
 24 25  1  0
 13 26  1  0
 26 27  1  1
 26 28  1  0
 28 29  1  0
 29 30  1  0
 30 31  1  0
 31 32  1  0
 30 33  1  0
 33 34  2  0
 34 35  1  0
 35 36  2  0
 36 37  1  0
 37 38  2  0
 35 39  1  0
 39 40  1  0
 39 41  1  0
  9  4  1  0
 20 15  2  0
 25  6  1  0
 32 30  1  0
 38 33  1  0
M  END
$$$$
