
     RDKit          3D

 41 45  0  0  0  0  0  0  0  0999 V2000
  -21.4146  -45.5156   -7.8575 C   0  0  0  0  0  0  0  0  0  0  0  0
  -20.2069  -44.9080   -7.6195 O   0  0  0  0  0  0  0  0  0  0  0  0
  -19.1336  -45.6811   -8.0385 C   0  0  0  0  0  0  0  0  0  0  0  0
  -18.2303  -44.8902   -8.9004 C   0  0  0  0  0  0  0  0  0  0  0  0
  -17.0942  -45.3999   -9.4679 C   0  0  0  0  0  0  0  0  0  0  0  0
  -16.2380  -44.6340  -10.2873 C   0  0  0  0  0  0  0  0  0  0  0  0
  -16.5240  -43.3054  -10.5581 C   0  0  0  0  0  0  0  0  0  0  0  0
  -17.6542  -42.7674   -9.9980 C   0  0  0  0  0  0  0  0  0  0  0  0
  -18.4882  -43.5769   -9.1783 C   0  0  0  0  0  0  0  0  0  0  0  0
  -18.1928  -41.3909  -10.0213 C   0  0  0  0  0  0  0  0  0  0  0  0
  -19.4812  -41.3115  -10.2088 O   0  0  0  0  0  0  0  0  0  0  0  0
  -17.5296  -40.1442   -9.8686 N   0  0  0  0  0  0  0  0  0  0  0  0
  -16.2192  -39.9498   -9.2518 C   0  0  1  0  0  0  0  0  0  0  0  0
  -15.1523  -39.9876  -10.3071 C   0  0  0  0  0  0  0  0  0  0  0  0
  -13.8552  -40.6228   -9.9388 C   0  0  0  0  0  0  0  0  0  0  0  0
  -13.5679  -41.8738   -9.4743 C   0  0  0  0  0  0  0  0  0  0  0  0
  -12.2407  -42.2390   -9.2914 C   0  0  0  0  0  0  0  0  0  0  0  0
  -11.2235  -41.3194   -9.5782 C   0  0  0  0  0  0  0  0  0  0  0  0
  -11.4608  -40.0510  -10.0428 C   0  0  0  0  0  0  0  0  0  0  0  0
  -12.7783  -39.7366  -10.2117 C   0  0  0  0  0  0  0  0  0  0  0  0
  -11.7266  -43.4383   -8.8479 O   0  0  0  0  0  0  0  0  0  0  0  0
  -11.8380  -44.7776   -9.1891 C   0  0  0  0  0  0  0  0  0  0  0  0
  -13.2468  -45.3204   -9.2113 C   0  0  0  0  0  0  0  0  0  0  0  0
  -13.7721  -45.2864  -10.6148 C   0  0  0  0  0  0  0  0  0  0  0  0
  -15.1645  -45.3973  -10.7152 O   0  0  0  0  0  0  0  0  0  0  0  0
  -16.1853  -38.7281   -8.3965 C   0  0  2  0  0  0  0  0  0  0  0  0
  -15.4231  -39.0609   -7.2562 O   0  0  0  0  0  0  0  0  0  0  0  0
  -17.5026  -38.2363   -7.8988 C   0  0  0  0  0  0  0  0  0  0  0  0
  -18.1897  -37.6424   -9.0317 N   0  0  0  0  0  0  0  0  0  0  0  0
  -19.5492  -38.0578   -9.1950 C   0  0  0  0  0  0  0  0  0  0  0  0
  -20.3311  -37.9512  -10.4105 C   0  0  0  0  0  0  0  0  0  0  0  0
  -20.5051  -36.8910   -9.3381 C   0  0  0  0  0  0  0  0  0  0  0  0
  -20.0221  -39.0354   -8.1528 C   0  0  0  0  0  0  0  0  0  0  0  0
  -20.7452  -38.6300   -7.0404 C   0  0  0  0  0  0  0  0  0  0  0  0
  -21.1911  -39.5103   -6.0833 C   0  0  0  0  0  0  0  0  0  0  0  0
  -20.9285  -40.8506   -6.2009 C   0  0  0  0  0  0  0  0  0  0  0  0
  -20.2114  -41.2986   -7.2930 C   0  0  0  0  0  0  0  0  0  0  0  0
  -19.7707  -40.3939   -8.2475 C   0  0  0  0  0  0  0  0  0  0  0  0
  -21.9540  -39.0284   -4.9225 C   0  0  0  0  0  0  0  0  0  0  0  0
  -22.9578  -40.0808   -4.5214 C   0  0  0  0  0  0  0  0  0  0  0  0
  -22.7146  -37.7575   -5.2301 C   0  0  0  0  0  0  0  0  0  0  0  0
  1  2  1  0
  2  3  1  0
  3  4  1  0
  4  5  2  0
  5  6  1  0
  6  7  2  0
  7  8  1  0
  8  9  2  0
  8 10  1  0
 10 11  2  0
 10 12  1  0
 12 13  1  0
 13 14  1  6
 14 15  1  0
 15 16  1  0
 16 17  2  0
 17 18  1  0
 18 19  2  0
 19 20  1  0
 17 21  1  0
 21 22  1  0
 22 23  1  0
 23 24  1  0
 24 25  1  0
 13 26  1  0
 26 27  1  1
 26 28  1  0
 28 29  1  0
 29 30  1  0
 30 31  1  0
 31 32  1  0
 30 33  1  0
 33 34  2  0
 34 35  1  0
 35 36  2  0
 36 37  1  0
 37 38  2  0
 35 39  1  0
 39 40  1  0
 39 41  1  0
  9  4  1  0
 20 15  2  0
 25  6  1  0
 32 30  1  0
 38 33  1  0
M  END
$$$$
