
     RDKit          3D

 41 45  0  0  0  0  0  0  0  0999 V2000
  -21.6693  -41.5177   -2.4777 C   0  0  0  0  0  0  0  0  0  0  0  0
  -21.9244  -40.7075   -3.5560 O   0  0  0  0  0  0  0  0  0  0  0  0
  -22.9150  -41.2207   -4.3811 C   0  0  0  0  0  0  0  0  0  0  0  0
  -22.3669  -41.5301   -5.7184 C   0  0  0  0  0  0  0  0  0  0  0  0
  -22.2661  -42.8013   -6.2146 C   0  0  0  0  0  0  0  0  0  0  0  0
  -21.7385  -43.0846   -7.4923 C   0  0  0  0  0  0  0  0  0  0  0  0
  -21.2952  -42.0610   -8.3146 C   0  0  0  0  0  0  0  0  0  0  0  0
  -21.3801  -40.7772   -7.8402 C   0  0  0  0  0  0  0  0  0  0  0  0
  -21.9189  -40.5386   -6.5458 C   0  0  0  0  0  0  0  0  0  0  0  0
  -20.9317  -39.4929   -8.4189 C   0  0  0  0  0  0  0  0  0  0  0  0
  -21.7802  -38.5104   -8.2915 O   0  0  0  0  0  0  0  0  0  0  0  0
  -19.7233  -39.1608   -9.0874 N   0  0  0  0  0  0  0  0  0  0  0  0
  -18.4728  -39.9121   -9.0036 C   0  0  1  0  0  0  0  0  0  0  0  0
  -18.4051  -40.9092  -10.1237 C   0  0  0  0  0  0  0  0  0  0  0  0
  -17.7741  -42.2257   -9.8236 C   0  0  0  0  0  0  0  0  0  0  0  0
  -18.0678  -43.1681   -8.8807 C   0  0  0  0  0  0  0  0  0  0  0  0
  -17.3625  -44.3642   -8.8774 C   0  0  0  0  0  0  0  0  0  0  0  0
  -16.3608  -44.5802   -9.8328 C   0  0  0  0  0  0  0  0  0  0  0  0
  -16.0264  -43.6641  -10.7971 C   0  0  0  0  0  0  0  0  0  0  0  0
  -16.7475  -42.5056  -10.7655 C   0  0  0  0  0  0  0  0  0  0  0  0
  -17.4980  -45.4462   -8.0347 O   0  0  0  0  0  0  0  0  0  0  0  0
  -18.5213  -46.2816   -7.6134 C   0  0  0  0  0  0  0  0  0  0  0  0
  -19.7132  -45.5820   -7.0055 C   0  0  0  0  0  0  0  0  0  0  0  0
  -20.7719  -45.4013   -8.0511 C   0  0  0  0  0  0  0  0  0  0  0  0
  -21.7472  -44.4490   -7.7297 O   0  0  0  0  0  0  0  0  0  0  0  0
  -17.2884  -39.0089   -8.9213 C   0  0  2  0  0  0  0  0  0  0  0  0
  -16.3467  -39.6606   -8.0964 O   0  0  0  0  0  0  0  0  0  0  0  0
  -17.5255  -37.6659   -8.3173 C   0  0  0  0  0  0  0  0  0  0  0  0
  -18.9387  -37.3722   -8.4763 N   0  0  0  0  0  0  0  0  0  0  0  0
  -19.3079  -36.8772   -9.7670 C   0  0  0  0  0  0  0  0  0  0  0  0
  -20.6372  -36.4658  -10.1719 C   0  0  0  0  0  0  0  0  0  0  0  0
  -20.1597  -37.8566  -10.5485 C   0  0  0  0  0  0  0  0  0  0  0  0
  -18.1497  -36.3750  -10.5867 C   0  0  0  0  0  0  0  0  0  0  0  0
  -17.1723  -35.5506  -10.0484 C   0  0  0  0  0  0  0  0  0  0  0  0
  -16.1041  -35.0892  -10.7806 C   0  0  0  0  0  0  0  0  0  0  0  0
  -15.9678  -35.4381  -12.0992 C   0  0  0  0  0  0  0  0  0  0  0  0
  -16.9181  -36.2575  -12.6763 C   0  0  0  0  0  0  0  0  0  0  0  0
  -17.9882  -36.7122  -11.9200 C   0  0  0  0  0  0  0  0  0  0  0  0
  -15.0951  -34.2171  -10.1617 C   0  0  0  0  0  0  0  0  0  0  0  0
  -14.6140  -34.8523   -8.8807 C   0  0  0  0  0  0  0  0  0  0  0  0
  -15.6548  -32.8539   -9.8200 C   0  0  0  0  0  0  0  0  0  0  0  0
  1  2  1  0
  2  3  1  0
  3  4  1  0
  4  5  2  0
  5  6  1  0
  6  7  2  0
  7  8  1  0
  8  9  2  0
  8 10  1  0
 10 11  2  0
 10 12  1  0
 12 13  1  0
 13 14  1  6
 14 15  1  0
 15 16  1  0
 16 17  2  0
 17 18  1  0
 18 19  2  0
 19 20  1  0
 17 21  1  0
 21 22  1  0
 22 23  1  0
 23 24  1  0
 24 25  1  0
 13 26  1  0
 26 27  1  1
 26 28  1  0
 28 29  1  0
 29 30  1  0
 30 31  1  0
 31 32  1  0
 30 33  1  0
 33 34  2  0
 34 35  1  0
 35 36  2  0
 36 37  1  0
 37 38  2  0
 35 39  1  0
 39 40  1  0
 39 41  1  0
  9  4  1  0
 20 15  2  0
 25  6  1  0
 32 30  1  0
 38 33  1  0
M  END
$$$$
