
     RDKit          3D

 41 45  0  0  0  0  0  0  0  0999 V2000
  -12.4685  -44.4073   -9.5812 C   0  0  0  0  0  0  0  0  0  0  0  0
  -13.5591  -44.8659   -8.8851 O   0  0  0  0  0  0  0  0  0  0  0  0
  -14.6389  -45.1387   -9.7128 C   0  0  0  0  0  0  0  0  0  0  0  0
  -15.1518  -43.8941  -10.3228 C   0  0  0  0  0  0  0  0  0  0  0  0
  -14.5267  -43.2487  -11.3549 C   0  0  0  0  0  0  0  0  0  0  0  0
  -15.0248  -42.0592  -11.9276 C   0  0  0  0  0  0  0  0  0  0  0  0
  -16.1965  -41.4875  -11.4578 C   0  0  0  0  0  0  0  0  0  0  0  0
  -16.8412  -42.1109  -10.4203 C   0  0  0  0  0  0  0  0  0  0  0  0
  -16.3024  -43.3084   -9.8738 C   0  0  0  0  0  0  0  0  0  0  0  0
  -18.0432  -41.7286   -9.6495 C   0  0  0  0  0  0  0  0  0  0  0  0
  -18.8718  -42.7067   -9.4086 O   0  0  0  0  0  0  0  0  0  0  0  0
  -18.4350  -40.4667   -9.1282 N   0  0  0  0  0  0  0  0  0  0  0  0
  -17.5437  -39.3340   -8.8874 C   0  0  1  0  0  0  0  0  0  0  0  0
  -17.5290  -38.4366  -10.0907 C   0  0  0  0  0  0  0  0  0  0  0  0
  -16.2320  -37.7908  -10.4403 C   0  0  0  0  0  0  0  0  0  0  0  0
  -15.0064  -38.3269  -10.7118 C   0  0  0  0  0  0  0  0  0  0  0  0
  -13.9715  -37.4863  -11.1001 C   0  0  0  0  0  0  0  0  0  0  0  0
  -14.1993  -36.1075  -11.1993 C   0  0  0  0  0  0  0  0  0  0  0  0
  -15.4103  -35.5209  -10.9338 C   0  0  0  0  0  0  0  0  0  0  0  0
  -16.3990  -36.3846  -10.5601 C   0  0  0  0  0  0  0  0  0  0  0  0
  -12.6725  -37.8082  -11.4289 O   0  0  0  0  0  0  0  0  0  0  0  0
  -12.0322  -38.6701  -12.3063 C   0  0  0  0  0  0  0  0  0  0  0  0
  -12.4246  -40.1227  -12.1818 C   0  0  0  0  0  0  0  0  0  0  0  0
  -13.4794  -40.4429  -13.1975 C   0  0  0  0  0  0  0  0  0  0  0  0
  -14.1901  -41.6224  -12.9428 O   0  0  0  0  0  0  0  0  0  0  0  0
  -17.8698  -38.6342   -7.6111 C   0  0  2  0  0  0  0  0  0  0  0  0
  -16.6413  -38.1966   -7.0714 O   0  0  0  0  0  0  0  0  0  0  0  0
  -18.5274  -39.4597   -6.5572 C   0  0  0  0  0  0  0  0  0  0  0  0
  -19.7408  -40.0042   -7.1399 N   0  0  0  0  0  0  0  0  0  0  0  0
  -20.3597  -41.0441   -6.3764 C   0  0  0  0  0  0  0  0  0  0  0  0
  -19.6723  -42.1181   -5.6878 C   0  0  0  0  0  0  0  0  0  0  0  0
  -20.2748  -42.3972   -7.0528 C   0  0  0  0  0  0  0  0  0  0  0  0
  -21.7657  -40.7316   -5.9394 C   0  0  0  0  0  0  0  0  0  0  0  0
  -22.5506  -39.7996   -6.6028 C   0  0  0  0  0  0  0  0  0  0  0  0
  -23.8388  -39.5078   -6.2216 C   0  0  0  0  0  0  0  0  0  0  0  0
  -24.4026  -40.1446   -5.1466 C   0  0  0  0  0  0  0  0  0  0  0  0
  -23.6570  -41.0803   -4.4566 C   0  0  0  0  0  0  0  0  0  0  0  0
  -22.3590  -41.3603   -4.8575 C   0  0  0  0  0  0  0  0  0  0  0  0
  -24.6285  -38.5109   -6.9594 C   0  0  0  0  0  0  0  0  0  0  0  0
  -24.7783  -37.2738   -6.1090 C   0  0  0  0  0  0  0  0  0  0  0  0
  -26.0158  -39.0158   -7.2894 C   0  0  0  0  0  0  0  0  0  0  0  0
  1  2  1  0
  2  3  1  0
  3  4  1  0
  4  5  2  0
  5  6  1  0
  6  7  2  0
  7  8  1  0
  8  9  2  0
  8 10  1  0
 10 11  2  0
 10 12  1  0
 12 13  1  0
 13 14  1  6
 14 15  1  0
 15 16  1  0
 16 17  2  0
 17 18  1  0
 18 19  2  0
 19 20  1  0
 17 21  1  0
 21 22  1  0
 22 23  1  0
 23 24  1  0
 24 25  1  0
 13 26  1  0
 26 27  1  1
 26 28  1  0
 28 29  1  0
 29 30  1  0
 30 31  1  0
 31 32  1  0
 30 33  1  0
 33 34  2  0
 34 35  1  0
 35 36  2  0
 36 37  1  0
 37 38  2  0
 35 39  1  0
 39 40  1  0
 39 41  1  0
  9  4  1  0
 20 15  2  0
 25  6  1  0
 32 30  1  0
 38 33  1  0
M  END
$$$$
