
     RDKit          3D

 41 45  0  0  0  0  0  0  0  0999 V2000
  -20.6393  -44.7559   -4.1983 C   0  0  0  0  0  0  0  0  0  0  0  0
  -20.6226  -43.9144   -5.2827 O   0  0  0  0  0  0  0  0  0  0  0  0
  -20.9057  -44.5749   -6.4697 C   0  0  0  0  0  0  0  0  0  0  0  0
  -19.9975  -44.1221   -7.5442 C   0  0  0  0  0  0  0  0  0  0  0  0
  -19.1859  -44.9681   -8.2498 C   0  0  0  0  0  0  0  0  0  0  0  0
  -18.3208  -44.5235   -9.2721 C   0  0  0  0  0  0  0  0  0  0  0  0
  -18.2617  -43.1812   -9.6112 C   0  0  0  0  0  0  0  0  0  0  0  0
  -19.0612  -42.3102   -8.9165 C   0  0  0  0  0  0  0  0  0  0  0  0
  -19.9178  -42.8030   -7.8936 C   0  0  0  0  0  0  0  0  0  0  0  0
  -19.1780  -40.8376   -8.9737 C   0  0  0  0  0  0  0  0  0  0  0  0
  -20.4009  -40.3849   -8.9422 O   0  0  0  0  0  0  0  0  0  0  0  0
  -18.1697  -39.8404   -9.0538 N   0  0  0  0  0  0  0  0  0  0  0  0
  -16.7653  -40.0224   -8.6934 C   0  0  1  0  0  0  0  0  0  0  0  0
  -15.9775  -40.4160   -9.9091 C   0  0  0  0  0  0  0  0  0  0  0  0
  -14.8705  -41.3947   -9.7133 C   0  0  0  0  0  0  0  0  0  0  0  0
  -14.8689  -42.6561   -9.1917 C   0  0  0  0  0  0  0  0  0  0  0  0
  -13.6922  -43.3932   -9.2079 C   0  0  0  0  0  0  0  0  0  0  0  0
  -12.5296  -42.8300   -9.7500 C   0  0  0  0  0  0  0  0  0  0  0  0
  -12.4792  -41.5668  -10.2819 C   0  0  0  0  0  0  0  0  0  0  0  0
  -13.6588  -40.8807  -10.2491 C   0  0  0  0  0  0  0  0  0  0  0  0
  -13.4670  -44.6737   -8.7509 O   0  0  0  0  0  0  0  0  0  0  0  0
  -14.0200  -45.9307   -8.9422 C   0  0  0  0  0  0  0  0  0  0  0  0
  -15.5019  -46.0294   -8.6704 C   0  0  0  0  0  0  0  0  0  0  0  0
  -16.2553  -45.8930   -9.9590 C   0  0  0  0  0  0  0  0  0  0  0  0
  -17.6135  -45.5875   -9.8066 O   0  0  0  0  0  0  0  0  0  0  0  0
  -16.2198  -38.8352   -7.9736 C   0  0  2  0  0  0  0  0  0  0  0  0
  -15.1963  -39.3166   -7.1294 O   0  0  0  0  0  0  0  0  0  0  0  0
  -17.1782  -38.0965   -7.1016 C   0  0  0  0  0  0  0  0  0  0  0  0
  -18.2641  -37.6434   -7.9525 N   0  0  0  0  0  0  0  0  0  0  0  0
  -19.5723  -37.8113   -7.3978 C   0  0  0  0  0  0  0  0  0  0  0  0
  -19.9041  -37.8134   -5.9871 C   0  0  0  0  0  0  0  0  0  0  0  0
  -19.7457  -39.1445   -6.6992 C   0  0  0  0  0  0  0  0  0  0  0  0
  -20.6903  -37.5468   -8.3701 C   0  0  0  0  0  0  0  0  0  0  0  0
  -21.7857  -36.7646   -8.0342 C   0  0  0  0  0  0  0  0  0  0  0  0
  -22.8115  -36.5069   -8.9124 C   0  0  0  0  0  0  0  0  0  0  0  0
  -22.7837  -37.0281  -10.1798 C   0  0  0  0  0  0  0  0  0  0  0  0
  -21.7117  -37.8130  -10.5572 C   0  0  0  0  0  0  0  0  0  0  0  0
  -20.6869  -38.0609   -9.6560 C   0  0  0  0  0  0  0  0  0  0  0  0
  -23.9506  -35.6707   -8.5059 C   0  0  0  0  0  0  0  0  0  0  0  0
  -24.3213  -34.7552   -9.6463 C   0  0  0  0  0  0  0  0  0  0  0  0
  -23.6229  -34.8074   -7.3077 C   0  0  0  0  0  0  0  0  0  0  0  0
  1  2  1  0
  2  3  1  0
  3  4  1  0
  4  5  2  0
  5  6  1  0
  6  7  2  0
  7  8  1  0
  8  9  2  0
  8 10  1  0
 10 11  2  0
 10 12  1  0
 12 13  1  0
 13 14  1  6
 14 15  1  0
 15 16  1  0
 16 17  2  0
 17 18  1  0
 18 19  2  0
 19 20  1  0
 17 21  1  0
 21 22  1  0
 22 23  1  0
 23 24  1  0
 24 25  1  0
 13 26  1  0
 26 27  1  1
 26 28  1  0
 28 29  1  0
 29 30  1  0
 30 31  1  0
 31 32  1  0
 30 33  1  0
 33 34  2  0
 34 35  1  0
 35 36  2  0
 36 37  1  0
 37 38  2  0
 35 39  1  0
 39 40  1  0
 39 41  1  0
  9  4  1  0
 20 15  2  0
 25  6  1  0
 32 30  1  0
 38 33  1  0
M  END
$$$$
