
     RDKit          3D

 41 45  0  0  0  0  0  0  0  0999 V2000
  -17.2622  -48.0266   -6.6583 C   0  0  0  0  0  0  0  0  0  0  0  0
  -18.0544  -47.3319   -7.5380 O   0  0  0  0  0  0  0  0  0  0  0  0
  -19.3940  -47.6777   -7.4309 C   0  0  0  0  0  0  0  0  0  0  0  0
  -20.2541  -46.5001   -7.6713 C   0  0  0  0  0  0  0  0  0  0  0  0
  -21.0947  -46.3889   -8.7452 C   0  0  0  0  0  0  0  0  0  0  0  0
  -21.9095  -45.2581   -8.9656 C   0  0  0  0  0  0  0  0  0  0  0  0
  -21.8918  -44.1931   -8.0791 C   0  0  0  0  0  0  0  0  0  0  0  0
  -21.0545  -44.2760   -6.9963 C   0  0  0  0  0  0  0  0  0  0  0  0
  -20.2508  -45.4352   -6.8143 C   0  0  0  0  0  0  0  0  0  0  0  0
  -20.7436  -43.3025   -5.9281 C   0  0  0  0  0  0  0  0  0  0  0  0
  -20.6812  -43.8096   -4.7280 O   0  0  0  0  0  0  0  0  0  0  0  0
  -20.4994  -41.9053   -6.0038 N   0  0  0  0  0  0  0  0  0  0  0  0
  -20.1027  -41.1769   -7.2068 C   0  0  1  0  0  0  0  0  0  0  0  0
  -21.3222  -40.6439   -7.9013 C   0  0  0  0  0  0  0  0  0  0  0  0
  -21.3068  -40.6382   -9.3916 C   0  0  0  0  0  0  0  0  0  0  0  0
  -21.1238  -41.6480  -10.2917 C   0  0  0  0  0  0  0  0  0  0  0  0
  -21.2468  -41.3758  -11.6478 C   0  0  0  0  0  0  0  0  0  0  0  0
  -21.5481  -40.0738  -12.0683 C   0  0  0  0  0  0  0  0  0  0  0  0
  -21.7371  -39.0256  -11.2043 C   0  0  0  0  0  0  0  0  0  0  0  0
  -21.6111  -39.3395   -9.8819 C   0  0  0  0  0  0  0  0  0  0  0  0
  -21.1158  -42.2343  -12.7179 O   0  0  0  0  0  0  0  0  0  0  0  0
  -21.6571  -43.4466  -13.1177 C   0  0  0  0  0  0  0  0  0  0  0  0
  -21.5203  -44.5719  -12.1205 C   0  0  0  0  0  0  0  0  0  0  0  0
  -22.7801  -44.6806  -11.3154 C   0  0  0  0  0  0  0  0  0  0  0  0
  -22.6475  -45.4103  -10.1276 O   0  0  0  0  0  0  0  0  0  0  0  0
  -19.0698  -40.1418   -6.9123 C   0  0  2  0  0  0  0  0  0  0  0  0
  -18.6652  -39.6166   -8.1583 O   0  0  0  0  0  0  0  0  0  0  0  0
  -17.8327  -40.6216   -6.2310 C   0  0  0  0  0  0  0  0  0  0  0  0
  -17.9324  -40.2217   -4.8387 N   0  0  0  0  0  0  0  0  0  0  0  0
  -19.2555  -40.2610   -4.2955 C   0  0  0  0  0  0  0  0  0  0  0  0
  -19.6018  -40.5581   -2.9200 C   0  0  0  0  0  0  0  0  0  0  0  0
  -19.7063  -41.6662   -3.9522 C   0  0  0  0  0  0  0  0  0  0  0  0
  -20.2821  -39.5383   -5.1258 C   0  0  0  0  0  0  0  0  0  0  0  0
  -21.5648  -40.0361   -5.3039 C   0  0  0  0  0  0  0  0  0  0  0  0
  -22.5165  -39.3852   -6.0525 C   0  0  0  0  0  0  0  0  0  0  0  0
  -22.2206  -38.1937   -6.6621 C   0  0  0  0  0  0  0  0  0  0  0  0
  -20.9552  -37.6611   -6.5115 C   0  0  0  0  0  0  0  0  0  0  0  0
  -20.0094  -38.3337   -5.7519 C   0  0  0  0  0  0  0  0  0  0  0  0
  -23.8622  -39.9563   -6.2100 C   0  0  0  0  0  0  0  0  0  0  0  0
  -24.1158  -40.9356   -5.0908 C   0  0  0  0  0  0  0  0  0  0  0  0
  -24.0146  -40.6999   -7.5185 C   0  0  0  0  0  0  0  0  0  0  0  0
  1  2  1  0
  2  3  1  0
  3  4  1  0
  4  5  2  0
  5  6  1  0
  6  7  2  0
  7  8  1  0
  8  9  2  0
  8 10  1  0
 10 11  2  0
 10 12  1  0
 12 13  1  0
 13 14  1  1
 14 15  1  0
 15 16  1  0
 16 17  2  0
 17 18  1  0
 18 19  2  0
 19 20  1  0
 17 21  1  0
 21 22  1  0
 22 23  1  0
 23 24  1  0
 24 25  1  0
 13 26  1  0
 26 27  1  6
 26 28  1  0
 28 29  1  0
 29 30  1  0
 30 31  1  0
 31 32  1  0
 30 33  1  0
 33 34  2  0
 34 35  1  0
 35 36  2  0
 36 37  1  0
 37 38  2  0
 35 39  1  0
 39 40  1  0
 39 41  1  0
  9  4  1  0
 20 15  2  0
 25  6  1  0
 32 30  1  0
 38 33  1  0
M  END
$$$$
