
     RDKit          3D

 41 45  0  0  0  0  0  0  0  0999 V2000
  -19.3865  -47.8218   -7.1903 C   0  0  0  0  0  0  0  0  0  0  0  0
  -19.7755  -46.5547   -7.5476 O   0  0  0  0  0  0  0  0  0  0  0  0
  -20.8756  -46.1151   -6.8251 C   0  0  0  0  0  0  0  0  0  0  0  0
  -20.7409  -44.6802   -6.4978 C   0  0  0  0  0  0  0  0  0  0  0  0
  -21.7654  -43.9229   -5.9984 C   0  0  0  0  0  0  0  0  0  0  0  0
  -21.6255  -42.5526   -5.6920 C   0  0  0  0  0  0  0  0  0  0  0  0
  -20.4147  -41.9070   -5.8861 C   0  0  0  0  0  0  0  0  0  0  0  0
  -19.3720  -42.6412   -6.3903 C   0  0  0  0  0  0  0  0  0  0  0  0
  -19.5587  -44.0200   -6.6850 C   0  0  0  0  0  0  0  0  0  0  0  0
  -18.0021  -42.2469   -6.7816 C   0  0  0  0  0  0  0  0  0  0  0  0
  -17.0668  -43.0750   -6.4061 O   0  0  0  0  0  0  0  0  0  0  0  0
  -17.5457  -41.1121   -7.5037 N   0  0  0  0  0  0  0  0  0  0  0  0
  -18.3663  -40.2745   -8.3757 C   0  0  1  0  0  0  0  0  0  0  0  0
  -18.9161  -39.1164   -7.5947 C   0  0  0  0  0  0  0  0  0  0  0  0
  -20.2964  -38.6652   -7.9303 C   0  0  0  0  0  0  0  0  0  0  0  0
  -21.4835  -39.3389   -7.9416 C   0  0  0  0  0  0  0  0  0  0  0  0
  -22.6537  -38.6426   -8.2139 C   0  0  0  0  0  0  0  0  0  0  0  0
  -22.5961  -37.2681   -8.4788 C   0  0  0  0  0  0  0  0  0  0  0  0
  -21.4289  -36.5479   -8.4830 C   0  0  0  0  0  0  0  0  0  0  0  0
  -20.3049  -37.2711   -8.2062 C   0  0  0  0  0  0  0  0  0  0  0  0
  -23.9480  -39.1129   -8.2665 O   0  0  0  0  0  0  0  0  0  0  0  0
  -24.8027  -39.8250   -7.4388 C   0  0  0  0  0  0  0  0  0  0  0  0
  -24.2741  -41.1562   -6.9611 C   0  0  0  0  0  0  0  0  0  0  0  0
  -23.6678  -40.9925   -5.6001 C   0  0  0  0  0  0  0  0  0  0  0  0
  -22.8190  -42.0375   -5.2143 O   0  0  0  0  0  0  0  0  0  0  0  0
  -17.6340  -39.8798   -9.6139 C   0  0  2  0  0  0  0  0  0  0  0  0
  -18.5254  -40.0892  -10.6880 O   0  0  0  0  0  0  0  0  0  0  0  0
  -16.4012  -40.6591   -9.9262 C   0  0  0  0  0  0  0  0  0  0  0  0
  -15.5100  -40.5180   -8.7885 N   0  0  0  0  0  0  0  0  0  0  0  0
  -14.5733  -39.4410   -8.8891 C   0  0  0  0  0  0  0  0  0  0  0  0
  -13.1911  -39.4726   -8.4546 C   0  0  0  0  0  0  0  0  0  0  0  0
  -14.2262  -38.8389   -7.5428 C   0  0  0  0  0  0  0  0  0  0  0  0
  -14.9603  -38.3814   -9.8856 C   0  0  0  0  0  0  0  0  0  0  0  0
  -14.0115  -37.6290  -10.5627 C   0  0  0  0  0  0  0  0  0  0  0  0
  -14.3474  -36.6629  -11.4813 C   0  0  0  0  0  0  0  0  0  0  0  0
  -15.6639  -36.4061  -11.7641 C   0  0  0  0  0  0  0  0  0  0  0  0
  -16.6421  -37.1317  -11.1131 C   0  0  0  0  0  0  0  0  0  0  0  0
  -16.2820  -38.1022  -10.1898 C   0  0  0  0  0  0  0  0  0  0  0  0
  -13.3023  -35.8930  -12.1717 C   0  0  0  0  0  0  0  0  0  0  0  0
  -13.8515  -34.5370  -12.5400 C   0  0  0  0  0  0  0  0  0  0  0  0
  -12.8467  -36.5690  -13.4461 C   0  0  0  0  0  0  0  0  0  0  0  0
  1  2  1  0
  2  3  1  0
  3  4  1  0
  4  5  2  0
  5  6  1  0
  6  7  2  0
  7  8  1  0
  8  9  2  0
  8 10  1  0
 10 11  2  0
 10 12  1  0
 12 13  1  0
 13 14  1  1
 14 15  1  0
 15 16  1  0
 16 17  2  0
 17 18  1  0
 18 19  2  0
 19 20  1  0
 17 21  1  0
 21 22  1  0
 22 23  1  0
 23 24  1  0
 24 25  1  0
 13 26  1  0
 26 27  1  6
 26 28  1  0
 28 29  1  0
 29 30  1  0
 30 31  1  0
 31 32  1  0
 30 33  1  0
 33 34  2  0
 34 35  1  0
 35 36  2  0
 36 37  1  0
 37 38  2  0
 35 39  1  0
 39 40  1  0
 39 41  1  0
  9  4  1  0
 20 15  2  0
 25  6  1  0
 32 30  1  0
 38 33  1  0
M  END
$$$$
