
     RDKit          3D

 41 45  0  0  0  0  0  0  0  0999 V2000
  -22.3542  -39.7012  -13.1473 C   0  0  0  0  0  0  0  0  0  0  0  0
  -21.0627  -40.1649  -13.1119 O   0  0  0  0  0  0  0  0  0  0  0  0
  -20.9866  -41.4891  -12.7045 C   0  0  0  0  0  0  0  0  0  0  0  0
  -20.4999  -41.5758  -11.3117 C   0  0  0  0  0  0  0  0  0  0  0  0
  -21.2134  -42.1588  -10.3000 C   0  0  0  0  0  0  0  0  0  0  0  0
  -20.7392  -42.2333   -8.9732 C   0  0  0  0  0  0  0  0  0  0  0  0
  -19.5011  -41.7096   -8.6367 C   0  0  0  0  0  0  0  0  0  0  0  0
  -18.7666  -41.1150   -9.6304 C   0  0  0  0  0  0  0  0  0  0  0  0
  -19.2845  -41.0625  -10.9540 C   0  0  0  0  0  0  0  0  0  0  0  0
  -17.4713  -40.4037   -9.5921 C   0  0  0  0  0  0  0  0  0  0  0  0
  -16.6581  -40.6966  -10.5690 O   0  0  0  0  0  0  0  0  0  0  0  0
  -16.9757  -39.4510   -8.6625 N   0  0  0  0  0  0  0  0  0  0  0  0
  -17.7906  -38.6525   -7.7494 C   0  0  1  0  0  0  0  0  0  0  0  0
  -17.9082  -39.3560   -6.4286 C   0  0  0  0  0  0  0  0  0  0  0  0
  -19.2113  -39.2450   -5.7137 C   0  0  0  0  0  0  0  0  0  0  0  0
  -20.4791  -39.5688   -6.1023 C   0  0  0  0  0  0  0  0  0  0  0  0
  -21.5190  -39.4419   -5.1908 C   0  0  0  0  0  0  0  0  0  0  0  0
  -21.2523  -38.9787   -3.8958 C   0  0  0  0  0  0  0  0  0  0  0  0
  -19.9978  -38.6373   -3.4591 C   0  0  0  0  0  0  0  0  0  0  0  0
  -19.0062  -38.7816   -4.3860 C   0  0  0  0  0  0  0  0  0  0  0  0
  -22.8582  -39.7186   -5.3621 O   0  0  0  0  0  0  0  0  0  0  0  0
  -23.6260  -40.7939   -5.7824 C   0  0  0  0  0  0  0  0  0  0  0  0
  -23.2768  -41.3391   -7.1464 C   0  0  0  0  0  0  0  0  0  0  0  0
  -22.3570  -42.5128   -6.9937 C   0  0  0  0  0  0  0  0  0  0  0  0
  -21.6668  -42.8637   -8.1606 O   0  0  0  0  0  0  0  0  0  0  0  0
  -17.2956  -37.2489   -7.6487 C   0  0  2  0  0  0  0  0  0  0  0  0
  -18.3888  -36.4166   -7.9716 O   0  0  0  0  0  0  0  0  0  0  0  0
  -16.1875  -36.8737   -8.5738 C   0  0  0  0  0  0  0  0  0  0  0  0
  -15.4486  -38.0890   -8.8662 N   0  0  0  0  0  0  0  0  0  0  0  0
  -15.6139  -38.5872  -10.1973 C   0  0  0  0  0  0  0  0  0  0  0  0
  -16.8331  -39.1387  -10.7537 C   0  0  0  0  0  0  0  0  0  0  0  0
  -15.7689  -40.0936  -10.2440 C   0  0  0  0  0  0  0  0  0  0  0  0
  -14.5667  -38.1087  -11.1668 C   0  0  0  0  0  0  0  0  0  0  0  0
  -13.3849  -38.8053  -11.3736 C   0  0  0  0  0  0  0  0  0  0  0  0
  -12.4216  -38.3866  -12.2605 C   0  0  0  0  0  0  0  0  0  0  0  0
  -12.6030  -37.2382  -12.9867 C   0  0  0  0  0  0  0  0  0  0  0  0
  -13.7653  -36.5129  -12.8125 C   0  0  0  0  0  0  0  0  0  0  0  0
  -14.7249  -36.9528  -11.9126 C   0  0  0  0  0  0  0  0  0  0  0  0
  -11.1858  -39.1622  -12.4424 C   0  0  0  0  0  0  0  0  0  0  0  0
  -11.5375  -40.5351  -12.9593 C   0  0  0  0  0  0  0  0  0  0  0  0
  -10.4281  -39.3368  -11.1447 C   0  0  0  0  0  0  0  0  0  0  0  0
  1  2  1  0
  2  3  1  0
  3  4  1  0
  4  5  2  0
  5  6  1  0
  6  7  2  0
  7  8  1  0
  8  9  2  0
  8 10  1  0
 10 11  2  0
 10 12  1  0
 12 13  1  0
 13 14  1  1
 14 15  1  0
 15 16  1  0
 16 17  2  0
 17 18  1  0
 18 19  2  0
 19 20  1  0
 17 21  1  0
 21 22  1  0
 22 23  1  0
 23 24  1  0
 24 25  1  0
 13 26  1  0
 26 27  1  6
 26 28  1  0
 28 29  1  0
 29 30  1  0
 30 31  1  0
 31 32  1  0
 30 33  1  0
 33 34  2  0
 34 35  1  0
 35 36  2  0
 36 37  1  0
 37 38  2  0
 35 39  1  0
 39 40  1  0
 39 41  1  0
  9  4  1  0
 20 15  2  0
 25  6  1  0
 32 30  1  0
 38 33  1  0
M  END
$$$$
