
     RDKit          3D

 41 45  0  0  0  0  0  0  0  0999 V2000
  -21.1824  -48.5739   -5.7792 C   0  0  0  0  0  0  0  0  0  0  0  0
  -20.7455  -47.6509   -6.6965 O   0  0  0  0  0  0  0  0  0  0  0  0
  -19.7677  -46.8129   -6.1799 C   0  0  0  0  0  0  0  0  0  0  0  0
  -18.9640  -46.2205   -7.2697 C   0  0  0  0  0  0  0  0  0  0  0  0
  -17.8128  -46.7848   -7.7480 C   0  0  0  0  0  0  0  0  0  0  0  0
  -17.0524  -46.2083   -8.7875 C   0  0  0  0  0  0  0  0  0  0  0  0
  -17.4544  -45.0221   -9.3805 C   0  0  0  0  0  0  0  0  0  0  0  0
  -18.6023  -44.4322   -8.9171 C   0  0  0  0  0  0  0  0  0  0  0  0
  -19.3370  -45.0490   -7.8670 C   0  0  0  0  0  0  0  0  0  0  0  0
  -19.2504  -43.1512   -9.2697 C   0  0  0  0  0  0  0  0  0  0  0  0
  -20.5471  -43.2118   -9.3970 O   0  0  0  0  0  0  0  0  0  0  0  0
  -18.6843  -41.8669   -9.4879 N   0  0  0  0  0  0  0  0  0  0  0  0
  -17.3715  -41.4274   -9.0203 C   0  0  1  0  0  0  0  0  0  0  0  0
  -16.3454  -41.6722  -10.0883 C   0  0  0  0  0  0  0  0  0  0  0  0
  -14.9886  -42.0974   -9.6416 C   0  0  0  0  0  0  0  0  0  0  0  0
  -14.5843  -43.1574   -8.8824 C   0  0  0  0  0  0  0  0  0  0  0  0
  -13.2261  -43.3702   -8.6868 C   0  0  0  0  0  0  0  0  0  0  0  0
  -12.2976  -42.4935   -9.2630 C   0  0  0  0  0  0  0  0  0  0  0  0
  -12.6535  -41.4134  -10.0296 C   0  0  0  0  0  0  0  0  0  0  0  0
  -13.9974  -41.2451  -10.1990 C   0  0  0  0  0  0  0  0  0  0  0  0
  -12.6009  -44.3708   -7.9746 O   0  0  0  0  0  0  0  0  0  0  0  0
  -12.6170  -45.7569   -7.9453 C   0  0  0  0  0  0  0  0  0  0  0  0
  -13.9773  -46.3800   -7.7432 C   0  0  0  0  0  0  0  0  0  0  0  0
  -14.5561  -46.7561   -9.0738 C   0  0  0  0  0  0  0  0  0  0  0  0
  -15.9379  -46.9836   -9.0612 O   0  0  0  0  0  0  0  0  0  0  0  0
  -17.4038  -40.0228   -8.5189 C   0  0  2  0  0  0  0  0  0  0  0  0
  -18.0171  -40.0671   -7.2485 O   0  0  0  0  0  0  0  0  0  0  0  0
  -18.1864  -39.0503   -9.3354 C   0  0  0  0  0  0  0  0  0  0  0  0
  -18.4811  -37.9162   -8.4778 N   0  0  0  0  0  0  0  0  0  0  0  0
  -19.7020  -37.2347   -8.7814 C   0  0  0  0  0  0  0  0  0  0  0  0
  -19.8483  -36.1161   -9.6911 C   0  0  0  0  0  0  0  0  0  0  0  0
  -19.7514  -35.8354   -8.2025 C   0  0  0  0  0  0  0  0  0  0  0  0
  -20.9426  -38.0171   -8.4433 C   0  0  0  0  0  0  0  0  0  0  0  0
  -20.9703  -38.9368   -7.4049 C   0  0  0  0  0  0  0  0  0  0  0  0
  -22.0966  -39.6540   -7.0781 C   0  0  0  0  0  0  0  0  0  0  0  0
  -23.2573  -39.4787   -7.7860 C   0  0  0  0  0  0  0  0  0  0  0  0
  -23.2749  -38.5730   -8.8285 C   0  0  0  0  0  0  0  0  0  0  0  0
  -22.1277  -37.8592   -9.1420 C   0  0  0  0  0  0  0  0  0  0  0  0
  -22.0727  -40.6172   -5.9675 C   0  0  0  0  0  0  0  0  0  0  0  0
  -22.9576  -41.7892   -6.3127 C   0  0  0  0  0  0  0  0  0  0  0  0
  -22.5875  -40.0127   -4.6798 C   0  0  0  0  0  0  0  0  0  0  0  0
  1  2  1  0
  2  3  1  0
  3  4  1  0
  4  5  2  0
  5  6  1  0
  6  7  2  0
  7  8  1  0
  8  9  2  0
  8 10  1  0
 10 11  2  0
 10 12  1  0
 12 13  1  0
 13 14  1  6
 14 15  1  0
 15 16  1  0
 16 17  2  0
 17 18  1  0
 18 19  2  0
 19 20  1  0
 17 21  1  0
 21 22  1  0
 22 23  1  0
 23 24  1  0
 24 25  1  0
 13 26  1  0
 26 27  1  1
 26 28  1  0
 28 29  1  0
 29 30  1  0
 30 31  1  0
 31 32  1  0
 30 33  1  0
 33 34  2  0
 34 35  1  0
 35 36  2  0
 36 37  1  0
 37 38  2  0
 35 39  1  0
 39 40  1  0
 39 41  1  0
  9  4  1  0
 20 15  2  0
 25  6  1  0
 32 30  1  0
 38 33  1  0
M  END
$$$$
