
     RDKit          3D

 41 45  0  0  0  0  0  0  0  0999 V2000
  -17.6771  -47.8389   -7.8943 C   0  0  0  0  0  0  0  0  0  0  0  0
  -18.9958  -47.6164   -8.2038 O   0  0  0  0  0  0  0  0  0  0  0  0
  -19.1885  -46.4119   -8.8652 C   0  0  0  0  0  0  0  0  0  0  0  0
  -19.1220  -45.2822   -7.9146 C   0  0  0  0  0  0  0  0  0  0  0  0
  -20.0088  -45.1102   -6.8868 C   0  0  0  0  0  0  0  0  0  0  0  0
  -19.9366  -44.0258   -5.9869 C   0  0  0  0  0  0  0  0  0  0  0  0
  -18.9382  -43.0728   -6.1103 C   0  0  0  0  0  0  0  0  0  0  0  0
  -18.0384  -43.2180   -7.1349 C   0  0  0  0  0  0  0  0  0  0  0  0
  -18.1498  -44.3269   -8.0185 C   0  0  0  0  0  0  0  0  0  0  0  0
  -16.9257  -42.3547   -7.5842 C   0  0  0  0  0  0  0  0  0  0  0  0
  -15.8299  -42.9918   -7.8921 O   0  0  0  0  0  0  0  0  0  0  0  0
  -16.8637  -40.9439   -7.7363 N   0  0  0  0  0  0  0  0  0  0  0  0
  -18.0145  -40.0528   -7.8670 C   0  0  1  0  0  0  0  0  0  0  0  0
  -18.4106  -39.5357   -6.5145 C   0  0  0  0  0  0  0  0  0  0  0  0
  -19.8674  -39.3556   -6.2564 C   0  0  0  0  0  0  0  0  0  0  0  0
  -20.9072  -40.2373   -6.3247 C   0  0  0  0  0  0  0  0  0  0  0  0
  -22.1747  -39.8193   -5.9412 C   0  0  0  0  0  0  0  0  0  0  0  0
  -22.3660  -38.5036   -5.4997 C   0  0  0  0  0  0  0  0  0  0  0  0
  -21.3554  -37.5801   -5.4169 C   0  0  0  0  0  0  0  0  0  0  0  0
  -20.1267  -38.0352   -5.7994 C   0  0  0  0  0  0  0  0  0  0  0  0
  -23.3520  -40.5353   -5.9192 O   0  0  0  0  0  0  0  0  0  0  0  0
  -23.8025  -41.7300   -5.3787 C   0  0  0  0  0  0  0  0  0  0  0  0
  -22.9969  -42.9503   -5.7550 C   0  0  0  0  0  0  0  0  0  0  0  0
  -22.0042  -43.2459   -4.6715 C   0  0  0  0  0  0  0  0  0  0  0  0
  -20.9611  -44.0968   -5.0577 O   0  0  0  0  0  0  0  0  0  0  0  0
  -17.7756  -38.9845   -8.8802 C   0  0  2  0  0  0  0  0  0  0  0  0
  -19.0480  -38.5591   -9.3185 O   0  0  0  0  0  0  0  0  0  0  0  0
  -17.0197  -39.3913  -10.1000 C   0  0  0  0  0  0  0  0  0  0  0  0
  -15.8954  -40.1951   -9.6544 N   0  0  0  0  0  0  0  0  0  0  0  0
  -14.6725  -39.4732   -9.4798 C   0  0  0  0  0  0  0  0  0  0  0  0
  -13.5884  -39.8390   -8.5903 C   0  0  0  0  0  0  0  0  0  0  0  0
  -14.5836  -38.7889   -8.1310 C   0  0  0  0  0  0  0  0  0  0  0  0
  -14.3537  -38.5240  -10.6036 C   0  0  0  0  0  0  0  0  0  0  0  0
  -15.1037  -37.3796  -10.8328 C   0  0  0  0  0  0  0  0  0  0  0  0
  -14.8218  -36.4984  -11.8496 C   0  0  0  0  0  0  0  0  0  0  0  0
  -13.7640  -36.7286  -12.6904 C   0  0  0  0  0  0  0  0  0  0  0  0
  -12.9900  -37.8563  -12.4987 C   0  0  0  0  0  0  0  0  0  0  0  0
  -13.2913  -38.7328  -11.4668 C   0  0  0  0  0  0  0  0  0  0  0  0
  -15.6488  -35.2992  -12.0496 C   0  0  0  0  0  0  0  0  0  0  0  0
  -16.4827  -35.0643  -10.8146 C   0  0  0  0  0  0  0  0  0  0  0  0
  -16.5921  -35.4486  -13.2229 C   0  0  0  0  0  0  0  0  0  0  0  0
  1  2  1  0
  2  3  1  0
  3  4  1  0
  4  5  2  0
  5  6  1  0
  6  7  2  0
  7  8  1  0
  8  9  2  0
  8 10  1  0
 10 11  2  0
 10 12  1  0
 12 13  1  0
 13 14  1  1
 14 15  1  0
 15 16  1  0
 16 17  2  0
 17 18  1  0
 18 19  2  0
 19 20  1  0
 17 21  1  0
 21 22  1  0
 22 23  1  0
 23 24  1  0
 24 25  1  0
 13 26  1  0
 26 27  1  6
 26 28  1  0
 28 29  1  0
 29 30  1  0
 30 31  1  0
 31 32  1  0
 30 33  1  0
 33 34  2  0
 34 35  1  0
 35 36  2  0
 36 37  1  0
 37 38  2  0
 35 39  1  0
 39 40  1  0
 39 41  1  0
  9  4  1  0
 20 15  2  0
 25  6  1  0
 32 30  1  0
 38 33  1  0
M  END
$$$$
