
     RDKit          3D

 41 45  0  0  0  0  0  0  0  0999 V2000
  -14.8185  -47.4217   -7.4297 C   0  0  0  0  0  0  0  0  0  0  0  0
  -16.1053  -46.9918   -7.2213 O   0  0  0  0  0  0  0  0  0  0  0  0
  -16.9304  -47.2439   -8.3080 C   0  0  0  0  0  0  0  0  0  0  0  0
  -17.2115  -45.9948   -9.0463 C   0  0  0  0  0  0  0  0  0  0  0  0
  -16.9004  -45.8146  -10.3665 C   0  0  0  0  0  0  0  0  0  0  0  0
  -17.1714  -44.6160  -11.0601 C   0  0  0  0  0  0  0  0  0  0  0  0
  -17.7814  -43.5514  -10.4160 C   0  0  0  0  0  0  0  0  0  0  0  0
  -18.0998  -43.7030   -9.0908 C   0  0  0  0  0  0  0  0  0  0  0  0
  -17.8078  -44.9291   -8.4318 C   0  0  0  0  0  0  0  0  0  0  0  0
  -18.6721  -42.7550   -8.1115 C   0  0  0  0  0  0  0  0  0  0  0  0
  -19.5948  -43.2582   -7.3389 O   0  0  0  0  0  0  0  0  0  0  0  0
  -18.3732  -41.3862   -7.8780 N   0  0  0  0  0  0  0  0  0  0  0  0
  -17.1459  -40.7043   -8.2831 C   0  0  1  0  0  0  0  0  0  0  0  0
  -17.3409  -40.0674   -9.6284 C   0  0  0  0  0  0  0  0  0  0  0  0
  -16.1754  -40.0725  -10.5573 C   0  0  0  0  0  0  0  0  0  0  0  0
  -15.4252  -41.1004  -11.0513 C   0  0  0  0  0  0  0  0  0  0  0  0
  -14.4343  -40.8267  -11.9848 C   0  0  0  0  0  0  0  0  0  0  0  0
  -14.2167  -39.5055  -12.3968 C   0  0  0  0  0  0  0  0  0  0  0  0
  -14.9403  -38.4391  -11.9276 C   0  0  0  0  0  0  0  0  0  0  0  0
  -15.9059  -38.7547  -11.0159 C   0  0  0  0  0  0  0  0  0  0  0  0
  -13.5756  -41.7003  -12.6163 O   0  0  0  0  0  0  0  0  0  0  0  0
  -13.6811  -42.8610  -13.3674 C   0  0  0  0  0  0  0  0  0  0  0  0
  -14.4382  -43.9878  -12.7065 C   0  0  0  0  0  0  0  0  0  0  0  0
  -15.8609  -43.9768  -13.1784 C   0  0  0  0  0  0  0  0  0  0  0  0
  -16.7438  -44.7081  -12.3742 O   0  0  0  0  0  0  0  0  0  0  0  0
  -16.6607  -39.7653   -7.2305 C   0  0  2  0  0  0  0  0  0  0  0  0
  -16.9569  -40.3696   -5.9899 O   0  0  0  0  0  0  0  0  0  0  0  0
  -17.2959  -38.4159   -7.2087 C   0  0  0  0  0  0  0  0  0  0  0  0
  -18.6255  -38.5634   -7.7734 N   0  0  0  0  0  0  0  0  0  0  0  0
  -19.5449  -39.3000   -6.9614 C   0  0  0  0  0  0  0  0  0  0  0  0
  -19.3196  -39.7271   -5.5950 C   0  0  0  0  0  0  0  0  0  0  0  0
  -19.0969  -40.7263   -6.7158 C   0  0  0  0  0  0  0  0  0  0  0  0
  -20.9704  -39.2429   -7.4412 C   0  0  0  0  0  0  0  0  0  0  0  0
  -22.0315  -39.6359   -6.6385 C   0  0  0  0  0  0  0  0  0  0  0  0
  -23.3395  -39.5830   -7.0582 C   0  0  0  0  0  0  0  0  0  0  0  0
  -23.6442  -39.1290   -8.3152 C   0  0  0  0  0  0  0  0  0  0  0  0
  -22.6186  -38.7273   -9.1485 C   0  0  0  0  0  0  0  0  0  0  0  0
  -21.3056  -38.7884   -8.7056 C   0  0  0  0  0  0  0  0  0  0  0  0
  -24.4278  -40.0118   -6.1674 C   0  0  0  0  0  0  0  0  0  0  0  0
  -24.7527  -38.8907   -5.2117 C   0  0  0  0  0  0  0  0  0  0  0  0
  -24.0460  -41.2235   -5.3461 C   0  0  0  0  0  0  0  0  0  0  0  0
  1  2  1  0
  2  3  1  0
  3  4  1  0
  4  5  2  0
  5  6  1  0
  6  7  2  0
  7  8  1  0
  8  9  2  0
  8 10  1  0
 10 11  2  0
 10 12  1  0
 12 13  1  0
 13 14  1  6
 14 15  1  0
 15 16  1  0
 16 17  2  0
 17 18  1  0
 18 19  2  0
 19 20  1  0
 17 21  1  0
 21 22  1  0
 22 23  1  0
 23 24  1  0
 24 25  1  0
 13 26  1  0
 26 27  1  1
 26 28  1  0
 28 29  1  0
 29 30  1  0
 30 31  1  0
 31 32  1  0
 30 33  1  0
 33 34  2  0
 34 35  1  0
 35 36  2  0
 36 37  1  0
 37 38  2  0
 35 39  1  0
 39 40  1  0
 39 41  1  0
  9  4  1  0
 20 15  2  0
 25  6  1  0
 32 30  1  0
 38 33  1  0
M  END
$$$$
