
     RDKit          3D

 41 45  0  0  0  0  0  0  0  0999 V2000
  -17.2700  -47.1209  -10.6560 C   0  0  0  0  0  0  0  0  0  0  0  0
  -17.4974  -45.8405  -11.0957 O   0  0  0  0  0  0  0  0  0  0  0  0
  -16.6542  -44.9168  -10.4948 C   0  0  0  0  0  0  0  0  0  0  0  0
  -17.1465  -43.5417  -10.7210 C   0  0  0  0  0  0  0  0  0  0  0  0
  -16.8702  -42.8196  -11.8500 C   0  0  0  0  0  0  0  0  0  0  0  0
  -17.3438  -41.5061  -12.0536 C   0  0  0  0  0  0  0  0  0  0  0  0
  -18.1291  -40.8838  -11.0963 C   0  0  0  0  0  0  0  0  0  0  0  0
  -18.4175  -41.5829   -9.9524 C   0  0  0  0  0  0  0  0  0  0  0  0
  -17.9184  -42.9048   -9.7898 C   0  0  0  0  0  0  0  0  0  0  0  0
  -19.1458  -41.1897   -8.7275 C   0  0  0  0  0  0  0  0  0  0  0  0
  -19.9682  -42.0916   -8.2675 O   0  0  0  0  0  0  0  0  0  0  0  0
  -19.0881  -39.9879   -7.9726 N   0  0  0  0  0  0  0  0  0  0  0  0
  -17.9969  -39.0166   -8.0051 C   0  0  1  0  0  0  0  0  0  0  0  0
  -18.2981  -37.9504   -9.0180 C   0  0  0  0  0  0  0  0  0  0  0  0
  -17.1486  -37.4115   -9.7988 C   0  0  0  0  0  0  0  0  0  0  0  0
  -16.2317  -38.0360  -10.5942 C   0  0  0  0  0  0  0  0  0  0  0  0
  -15.3023  -37.2697  -11.2851 C   0  0  0  0  0  0  0  0  0  0  0  0
  -15.3160  -35.8754  -11.1493 C   0  0  0  0  0  0  0  0  0  0  0  0
  -16.2134  -35.2021  -10.3605 C   0  0  0  0  0  0  0  0  0  0  0  0
  -17.1106  -35.9940   -9.7038 C   0  0  0  0  0  0  0  0  0  0  0  0
  -14.3050  -37.6837  -12.1415 O   0  0  0  0  0  0  0  0  0  0  0  0
  -14.2078  -38.4661  -13.2820 C   0  0  0  0  0  0  0  0  0  0  0  0
  -14.7591  -39.8655  -13.1506 C   0  0  0  0  0  0  0  0  0  0  0  0
  -16.1620  -39.9002  -13.6776 C   0  0  0  0  0  0  0  0  0  0  0  0
  -16.9058  -41.0154  -13.2723 O   0  0  0  0  0  0  0  0  0  0  0  0
  -17.6821  -38.4914   -6.6449 C   0  0  2  0  0  0  0  0  0  0  0  0
  -16.4177  -39.0141   -6.2986 O   0  0  0  0  0  0  0  0  0  0  0  0
  -18.6191  -38.8864   -5.5537 C   0  0  0  0  0  0  0  0  0  0  0  0
  -19.5377  -39.8610   -6.1148 N   0  0  0  0  0  0  0  0  0  0  0  0
  -20.9114  -39.4606   -6.1162 C   0  0  0  0  0  0  0  0  0  0  0  0
  -21.5611  -38.6535   -7.1294 C   0  0  0  0  0  0  0  0  0  0  0  0
  -21.0901  -37.9792   -5.8536 C   0  0  0  0  0  0  0  0  0  0  0  0
  -21.7940  -40.2909   -5.2234 C   0  0  0  0  0  0  0  0  0  0  0  0
  -21.3495  -41.4700   -4.6429 C   0  0  0  0  0  0  0  0  0  0  0  0
  -22.1398  -42.2361   -3.8193 C   0  0  0  0  0  0  0  0  0  0  0  0
  -23.4246  -41.8495   -3.5387 C   0  0  0  0  0  0  0  0  0  0  0  0
  -23.9087  -40.6819   -4.0954 C   0  0  0  0  0  0  0  0  0  0  0  0
  -23.0950  -39.9232   -4.9237 C   0  0  0  0  0  0  0  0  0  0  0  0
  -21.6198  -43.4784   -3.2290 C   0  0  0  0  0  0  0  0  0  0  0  0
  -21.8518  -44.6161   -4.1922 C   0  0  0  0  0  0  0  0  0  0  0  0
  -22.3131  -43.8239   -1.9297 C   0  0  0  0  0  0  0  0  0  0  0  0
  1  2  1  0
  2  3  1  0
  3  4  1  0
  4  5  2  0
  5  6  1  0
  6  7  2  0
  7  8  1  0
  8  9  2  0
  8 10  1  0
 10 11  2  0
 10 12  1  0
 12 13  1  0
 13 14  1  6
 14 15  1  0
 15 16  1  0
 16 17  2  0
 17 18  1  0
 18 19  2  0
 19 20  1  0
 17 21  1  0
 21 22  1  0
 22 23  1  0
 23 24  1  0
 24 25  1  0
 13 26  1  0
 26 27  1  1
 26 28  1  0
 28 29  1  0
 29 30  1  0
 30 31  1  0
 31 32  1  0
 30 33  1  0
 33 34  2  0
 34 35  1  0
 35 36  2  0
 36 37  1  0
 37 38  2  0
 35 39  1  0
 39 40  1  0
 39 41  1  0
  9  4  1  0
 20 15  2  0
 25  6  1  0
 32 30  1  0
 38 33  1  0
M  END
$$$$
