
     RDKit          3D

 41 45  0  0  0  0  0  0  0  0999 V2000
  -20.8569  -45.5146   -4.7801 C   0  0  0  0  0  0  0  0  0  0  0  0
  -20.5703  -44.7379   -5.8750 O   0  0  0  0  0  0  0  0  0  0  0  0
  -20.5300  -45.4742   -7.0505 C   0  0  0  0  0  0  0  0  0  0  0  0
  -19.5428  -44.8996   -7.9884 C   0  0  0  0  0  0  0  0  0  0  0  0
  -18.5546  -45.6348   -8.5845 C   0  0  0  0  0  0  0  0  0  0  0  0
  -17.6159  -45.0743   -9.4766 C   0  0  0  0  0  0  0  0  0  0  0  0
  -17.6628  -43.7261   -9.7937 C   0  0  0  0  0  0  0  0  0  0  0  0
  -18.6404  -42.9645   -9.2066 C   0  0  0  0  0  0  0  0  0  0  0  0
  -19.5653  -43.5720   -8.3131 C   0  0  0  0  0  0  0  0  0  0  0  0
  -18.9127  -41.5128   -9.2672 C   0  0  0  0  0  0  0  0  0  0  0  0
  -20.1718  -41.1980   -9.3979 O   0  0  0  0  0  0  0  0  0  0  0  0
  -18.0208  -40.4093   -9.2021 N   0  0  0  0  0  0  0  0  0  0  0  0
  -16.6657  -40.4442   -8.6564 C   0  0  1  0  0  0  0  0  0  0  0  0
  -15.6834  -40.7206   -9.7574 C   0  0  0  0  0  0  0  0  0  0  0  0
  -14.5100  -41.5760   -9.4215 C   0  0  0  0  0  0  0  0  0  0  0  0
  -14.4368  -42.8413   -8.9147 C   0  0  0  0  0  0  0  0  0  0  0  0
  -13.1934  -43.4440   -8.7774 C   0  0  0  0  0  0  0  0  0  0  0  0
  -12.0392  -42.7441   -9.1525 C   0  0  0  0  0  0  0  0  0  0  0  0
  -12.0600  -41.4711   -9.6625 C   0  0  0  0  0  0  0  0  0  0  0  0
  -13.3027  -40.9197   -9.7841 C   0  0  0  0  0  0  0  0  0  0  0  0
  -12.8893  -44.7023   -8.3044 O   0  0  0  0  0  0  0  0  0  0  0  0
  -13.2675  -46.0077   -8.5790 C   0  0  0  0  0  0  0  0  0  0  0  0
  -14.7520  -46.2748   -8.5111 C   0  0  0  0  0  0  0  0  0  0  0  0
  -15.3370  -46.1923   -9.8887 C   0  0  0  0  0  0  0  0  0  0  0  0
  -16.7289  -46.0415   -9.9191 O   0  0  0  0  0  0  0  0  0  0  0  0
  -16.3576  -39.2212   -7.8598 C   0  0  2  0  0  0  0  0  0  0  0  0
  -15.5236  -39.6357   -6.7994 O   0  0  0  0  0  0  0  0  0  0  0  0
  -17.5238  -38.5295   -7.2382 C   0  0  0  0  0  0  0  0  0  0  0  0
  -17.7102  -37.2818   -7.9572 N   0  0  0  0  0  0  0  0  0  0  0  0
  -18.6058  -37.3579   -9.0705 C   0  0  0  0  0  0  0  0  0  0  0  0
  -18.2266  -37.3498  -10.4692 C   0  0  0  0  0  0  0  0  0  0  0  0
  -18.7006  -36.0540   -9.8362 C   0  0  0  0  0  0  0  0  0  0  0  0
  -19.9681  -37.8979   -8.7271 C   0  0  0  0  0  0  0  0  0  0  0  0
  -20.3962  -38.0288   -7.4139 C   0  0  0  0  0  0  0  0  0  0  0  0
  -21.6396  -38.5129   -7.0830 C   0  0  0  0  0  0  0  0  0  0  0  0
  -22.5179  -38.8912   -8.0651 C   0  0  0  0  0  0  0  0  0  0  0  0
  -22.1332  -38.7778   -9.3868 C   0  0  0  0  0  0  0  0  0  0  0  0
  -20.8742  -38.2869   -9.6993 C   0  0  0  0  0  0  0  0  0  0  0  0
  -22.0445  -38.6317   -5.6746 C   0  0  0  0  0  0  0  0  0  0  0  0
  -21.5055  -39.9246   -5.1145 C   0  0  0  0  0  0  0  0  0  0  0  0
  -23.5487  -38.6503   -5.5152 C   0  0  0  0  0  0  0  0  0  0  0  0
  1  2  1  0
  2  3  1  0
  3  4  1  0
  4  5  2  0
  5  6  1  0
  6  7  2  0
  7  8  1  0
  8  9  2  0
  8 10  1  0
 10 11  2  0
 10 12  1  0
 12 13  1  0
 13 14  1  6
 14 15  1  0
 15 16  1  0
 16 17  2  0
 17 18  1  0
 18 19  2  0
 19 20  1  0
 17 21  1  0
 21 22  1  0
 22 23  1  0
 23 24  1  0
 24 25  1  0
 13 26  1  0
 26 27  1  1
 26 28  1  0
 28 29  1  0
 29 30  1  0
 30 31  1  0
 31 32  1  0
 30 33  1  0
 33 34  2  0
 34 35  1  0
 35 36  2  0
 36 37  1  0
 37 38  2  0
 35 39  1  0
 39 40  1  0
 39 41  1  0
  9  4  1  0
 20 15  2  0
 25  6  1  0
 32 30  1  0
 38 33  1  0
M  END
$$$$
