
     RDKit          3D

 41 45  0  0  0  0  0  0  0  0999 V2000
  -19.5368  -43.4601   -1.5585 C   0  0  0  0  0  0  0  0  0  0  0  0
  -20.6556  -43.6560   -2.3293 O   0  0  0  0  0  0  0  0  0  0  0  0
  -20.3534  -43.7895   -3.6770 C   0  0  0  0  0  0  0  0  0  0  0  0
  -20.5049  -42.4944   -4.3729 C   0  0  0  0  0  0  0  0  0  0  0  0
  -21.7147  -41.8918   -4.5863 C   0  0  0  0  0  0  0  0  0  0  0  0
  -21.8470  -40.6560   -5.2545 C   0  0  0  0  0  0  0  0  0  0  0  0
  -20.7293  -39.9877   -5.7281 C   0  0  0  0  0  0  0  0  0  0  0  0
  -19.5040  -40.5716   -5.5322 C   0  0  0  0  0  0  0  0  0  0  0  0
  -19.4183  -41.8184   -4.8533 C   0  0  0  0  0  0  0  0  0  0  0  0
  -18.1515  -40.1699   -5.9732 C   0  0  0  0  0  0  0  0  0  0  0  0
  -17.2206  -40.3005   -5.0688 O   0  0  0  0  0  0  0  0  0  0  0  0
  -17.7067  -39.6685   -7.2255 N   0  0  0  0  0  0  0  0  0  0  0  0
  -18.4133  -39.8120   -8.4966 C   0  0  1  0  0  0  0  0  0  0  0  0
  -19.2891  -38.6147   -8.7270 C   0  0  0  0  0  0  0  0  0  0  0  0
  -20.6035  -38.8522   -9.3883 C   0  0  0  0  0  0  0  0  0  0  0  0
  -21.6468  -39.6636   -9.0471 C   0  0  0  0  0  0  0  0  0  0  0  0
  -22.8088  -39.6266   -9.8065 C   0  0  0  0  0  0  0  0  0  0  0  0
  -22.8881  -38.7666  -10.9097 C   0  0  0  0  0  0  0  0  0  0  0  0
  -21.8671  -37.9359  -11.2948 C   0  0  0  0  0  0  0  0  0  0  0  0
  -20.7467  -38.0019  -10.5180 C   0  0  0  0  0  0  0  0  0  0  0  0
  -23.9746  -40.3422   -9.6395 O   0  0  0  0  0  0  0  0  0  0  0  0
  -24.8875  -40.5704   -8.6211 C   0  0  0  0  0  0  0  0  0  0  0  0
  -24.2998  -41.1127   -7.3404 C   0  0  0  0  0  0  0  0  0  0  0  0
  -24.0561  -39.9829   -6.3860 C   0  0  0  0  0  0  0  0  0  0  0  0
  -23.1799  -40.2890   -5.3373 O   0  0  0  0  0  0  0  0  0  0  0  0
  -17.4775  -40.1059   -9.6204 C   0  0  2  0  0  0  0  0  0  0  0  0
  -16.9556  -41.3946   -9.3778 O   0  0  0  0  0  0  0  0  0  0  0  0
  -16.3068  -39.1920   -9.7583 C   0  0  0  0  0  0  0  0  0  0  0  0
  -15.1487  -39.9057   -9.2504 N   0  0  0  0  0  0  0  0  0  0  0  0
  -14.0145  -39.0825   -8.9622 C   0  0  0  0  0  0  0  0  0  0  0  0
  -12.9029  -39.4366   -8.1025 C   0  0  0  0  0  0  0  0  0  0  0  0
  -14.0115  -38.5671   -7.5375 C   0  0  0  0  0  0  0  0  0  0  0  0
  -13.7948  -37.9708   -9.9529 C   0  0  0  0  0  0  0  0  0  0  0  0
  -14.2504  -36.6809   -9.7217 C   0  0  0  0  0  0  0  0  0  0  0  0
  -14.0518  -35.6525  -10.6122 C   0  0  0  0  0  0  0  0  0  0  0  0
  -13.3803  -35.8749  -11.7863 C   0  0  0  0  0  0  0  0  0  0  0  0
  -12.9089  -37.1444  -12.0575 C   0  0  0  0  0  0  0  0  0  0  0  0
  -13.1198  -38.1682  -11.1458 C   0  0  0  0  0  0  0  0  0  0  0  0
  -14.5555  -34.3027  -10.3189 C   0  0  0  0  0  0  0  0  0  0  0  0
  -14.5031  -33.4730  -11.5778 C   0  0  0  0  0  0  0  0  0  0  0  0
  -13.7235  -33.6014   -9.2680 C   0  0  0  0  0  0  0  0  0  0  0  0
  1  2  1  0
  2  3  1  0
  3  4  1  0
  4  5  2  0
  5  6  1  0
  6  7  2  0
  7  8  1  0
  8  9  2  0
  8 10  1  0
 10 11  2  0
 10 12  1  0
 12 13  1  0
 13 14  1  6
 14 15  1  0
 15 16  1  0
 16 17  2  0
 17 18  1  0
 18 19  2  0
 19 20  1  0
 17 21  1  0
 21 22  1  0
 22 23  1  0
 23 24  1  0
 24 25  1  0
 13 26  1  0
 26 27  1  1
 26 28  1  0
 28 29  1  0
 29 30  1  0
 30 31  1  0
 31 32  1  0
 30 33  1  0
 33 34  2  0
 34 35  1  0
 35 36  2  0
 36 37  1  0
 37 38  2  0
 35 39  1  0
 39 40  1  0
 39 41  1  0
  9  4  1  0
 20 15  2  0
 25  6  1  0
 32 30  1  0
 38 33  1  0
M  END
$$$$
