
     RDKit          3D

 41 45  0  0  0  0  0  0  0  0999 V2000
  -13.4053  -46.7787  -10.4287 C   0  0  0  0  0  0  0  0  0  0  0  0
  -14.4949  -45.9799  -10.1858 O   0  0  0  0  0  0  0  0  0  0  0  0
  -14.1458  -44.7732   -9.5964 C   0  0  0  0  0  0  0  0  0  0  0  0
  -14.9224  -43.6635  -10.1881 C   0  0  0  0  0  0  0  0  0  0  0  0
  -14.6252  -43.0986  -11.3984 C   0  0  0  0  0  0  0  0  0  0  0  0
  -15.3727  -42.0375  -11.9520 C   0  0  0  0  0  0  0  0  0  0  0  0
  -16.4650  -41.5172  -11.2764 C   0  0  0  0  0  0  0  0  0  0  0  0
  -16.7825  -42.0616  -10.0585 C   0  0  0  0  0  0  0  0  0  0  0  0
  -16.0007  -43.1302   -9.5390 C   0  0  0  0  0  0  0  0  0  0  0  0
  -17.8144  -41.6939   -9.0659 C   0  0  0  0  0  0  0  0  0  0  0  0
  -18.4496  -42.7037   -8.5384 O   0  0  0  0  0  0  0  0  0  0  0  0
  -18.2197  -40.4165   -8.5950 N   0  0  0  0  0  0  0  0  0  0  0  0
  -17.4326  -39.1889   -8.6876 C   0  0  1  0  0  0  0  0  0  0  0  0
  -17.7934  -38.4495   -9.9433 C   0  0  0  0  0  0  0  0  0  0  0  0
  -16.6918  -37.7405  -10.6541 C   0  0  0  0  0  0  0  0  0  0  0  0
  -15.5064  -38.1963  -11.1545 C   0  0  0  0  0  0  0  0  0  0  0  0
  -14.6894  -37.3226  -11.8598 C   0  0  0  0  0  0  0  0  0  0  0  0
  -15.0899  -35.9921  -12.0391 C   0  0  0  0  0  0  0  0  0  0  0  0
  -16.2682  -35.4858  -11.5531 C   0  0  0  0  0  0  0  0  0  0  0  0
  -17.0412  -36.3801  -10.8705 C   0  0  0  0  0  0  0  0  0  0  0  0
  -13.4705  -37.5673  -12.4544 O   0  0  0  0  0  0  0  0  0  0  0  0
  -12.9512  -38.4715  -13.3683 C   0  0  0  0  0  0  0  0  0  0  0  0
  -13.1365  -39.9264  -13.0096 C   0  0  0  0  0  0  0  0  0  0  0  0
  -14.3502  -40.4614  -13.7080 C   0  0  0  0  0  0  0  0  0  0  0  0
  -14.8451  -41.6580  -13.1750 O   0  0  0  0  0  0  0  0  0  0  0  0
  -17.5390  -38.3678   -7.4468 C   0  0  2  0  0  0  0  0  0  0  0  0
  -16.2400  -37.8884   -7.1734 O   0  0  0  0  0  0  0  0  0  0  0  0
  -17.9948  -39.0841   -6.2205 C   0  0  0  0  0  0  0  0  0  0  0  0
  -19.1575  -39.8694   -6.5949 N   0  0  0  0  0  0  0  0  0  0  0  0
  -20.3938  -39.1492   -6.5961 C   0  0  0  0  0  0  0  0  0  0  0  0
  -20.6171  -37.8437   -7.1844 C   0  0  0  0  0  0  0  0  0  0  0  0
  -20.3655  -37.9351   -5.6902 C   0  0  0  0  0  0  0  0  0  0  0  0
  -21.6038  -40.0056   -6.3355 C   0  0  0  0  0  0  0  0  0  0  0  0
  -21.6637  -41.3328   -6.7353 C   0  0  0  0  0  0  0  0  0  0  0  0
  -22.7576  -42.1310   -6.4985 C   0  0  0  0  0  0  0  0  0  0  0  0
  -23.8516  -41.6278   -5.8435 C   0  0  0  0  0  0  0  0  0  0  0  0
  -23.8353  -40.3110   -5.4274 C   0  0  0  0  0  0  0  0  0  0  0  0
  -22.7215  -39.5225   -5.6761 C   0  0  0  0  0  0  0  0  0  0  0  0
  -22.7702  -43.5323   -6.9435 C   0  0  0  0  0  0  0  0  0  0  0  0
  -23.8474  -43.7088   -7.9849 C   0  0  0  0  0  0  0  0  0  0  0  0
  -23.0647  -44.4867   -5.8073 C   0  0  0  0  0  0  0  0  0  0  0  0
  1  2  1  0
  2  3  1  0
  3  4  1  0
  4  5  2  0
  5  6  1  0
  6  7  2  0
  7  8  1  0
  8  9  2  0
  8 10  1  0
 10 11  2  0
 10 12  1  0
 12 13  1  0
 13 14  1  6
 14 15  1  0
 15 16  1  0
 16 17  2  0
 17 18  1  0
 18 19  2  0
 19 20  1  0
 17 21  1  0
 21 22  1  0
 22 23  1  0
 23 24  1  0
 24 25  1  0
 13 26  1  0
 26 27  1  1
 26 28  1  0
 28 29  1  0
 29 30  1  0
 30 31  1  0
 31 32  1  0
 30 33  1  0
 33 34  2  0
 34 35  1  0
 35 36  2  0
 36 37  1  0
 37 38  2  0
 35 39  1  0
 39 40  1  0
 39 41  1  0
  9  4  1  0
 20 15  2  0
 25  6  1  0
 32 30  1  0
 38 33  1  0
M  END
$$$$
