
     RDKit          3D

 41 45  0  0  0  0  0  0  0  0999 V2000
  -12.5529  -45.2478   -9.8211 C   0  0  0  0  0  0  0  0  0  0  0  0
  -11.5491  -44.3985  -10.2151 O   0  0  0  0  0  0  0  0  0  0  0  0
  -11.6466  -43.1501   -9.6172 C   0  0  0  0  0  0  0  0  0  0  0  0
  -12.5700  -42.2820  -10.3775 C   0  0  0  0  0  0  0  0  0  0  0  0
  -12.2076  -41.6093  -11.5126 C   0  0  0  0  0  0  0  0  0  0  0  0
  -13.0978  -40.7810  -12.2286 C   0  0  0  0  0  0  0  0  0  0  0  0
  -14.4057  -40.6165  -11.8013 C   0  0  0  0  0  0  0  0  0  0  0  0
  -14.7945  -41.2755  -10.6633 C   0  0  0  0  0  0  0  0  0  0  0  0
  -13.8632  -42.0999   -9.9735 C   0  0  0  0  0  0  0  0  0  0  0  0
  -16.0665  -41.2525   -9.9103 C   0  0  0  0  0  0  0  0  0  0  0  0
  -16.4817  -42.4202   -9.5035 O   0  0  0  0  0  0  0  0  0  0  0  0
  -16.9037  -40.1605   -9.5581 N   0  0  0  0  0  0  0  0  0  0  0  0
  -16.4956  -38.7581   -9.5126 C   0  0  1  0  0  0  0  0  0  0  0  0
  -16.7903  -38.1019  -10.8301 C   0  0  0  0  0  0  0  0  0  0  0  0
  -15.8154  -37.0840  -11.3148 C   0  0  0  0  0  0  0  0  0  0  0  0
  -14.4739  -37.1674  -11.5529 C   0  0  0  0  0  0  0  0  0  0  0  0
  -13.8137  -36.0720  -12.0938 C   0  0  0  0  0  0  0  0  0  0  0  0
  -14.5304  -34.9023  -12.3780 C   0  0  0  0  0  0  0  0  0  0  0  0
  -15.8768  -34.7680  -12.1535 C   0  0  0  0  0  0  0  0  0  0  0  0
  -16.4853  -35.8698  -11.6256 C   0  0  0  0  0  0  0  0  0  0  0  0
  -12.4816  -35.9399  -12.4215 O   0  0  0  0  0  0  0  0  0  0  0  0
  -11.5539  -36.6247  -13.1915 C   0  0  0  0  0  0  0  0  0  0  0  0
  -11.3872  -38.0857  -12.8490 C   0  0  0  0  0  0  0  0  0  0  0  0
  -12.2322  -38.9132  -13.7699 C   0  0  0  0  0  0  0  0  0  0  0  0
  -12.4641  -40.2208  -13.3253 O   0  0  0  0  0  0  0  0  0  0  0  0
  -17.0786  -38.0495   -8.3366 C   0  0  2  0  0  0  0  0  0  0  0  0
  -16.0534  -37.2313   -7.8157 O   0  0  0  0  0  0  0  0  0  0  0  0
  -17.5461  -38.9124   -7.2134 C   0  0  0  0  0  0  0  0  0  0  0  0
  -18.0480  -40.1411   -7.8024 N   0  0  0  0  0  0  0  0  0  0  0  0
  -19.4619  -40.1690   -8.0205 C   0  0  0  0  0  0  0  0  0  0  0  0
  -20.1557  -40.9826   -8.9987 C   0  0  0  0  0  0  0  0  0  0  0  0
  -19.8645  -39.5311   -9.3345 C   0  0  0  0  0  0  0  0  0  0  0  0
  -20.2713  -39.6284   -6.8724 C   0  0  0  0  0  0  0  0  0  0  0  0
  -21.3312  -40.3360   -6.3242 C   0  0  0  0  0  0  0  0  0  0  0  0
  -22.0758  -39.8604   -5.2709 C   0  0  0  0  0  0  0  0  0  0  0  0
  -21.7870  -38.6411   -4.7151 C   0  0  0  0  0  0  0  0  0  0  0  0
  -20.7397  -37.9023   -5.2297 C   0  0  0  0  0  0  0  0  0  0  0  0
  -20.0007  -38.4002   -6.2927 C   0  0  0  0  0  0  0  0  0  0  0  0
  -23.1898  -40.6506   -4.7266 C   0  0  0  0  0  0  0  0  0  0  0  0
  -24.2576  -39.7129   -4.2201 C   0  0  0  0  0  0  0  0  0  0  0  0
  -22.7555  -41.5243   -3.5706 C   0  0  0  0  0  0  0  0  0  0  0  0
  1  2  1  0
  2  3  1  0
  3  4  1  0
  4  5  2  0
  5  6  1  0
  6  7  2  0
  7  8  1  0
  8  9  2  0
  8 10  1  0
 10 11  2  0
 10 12  1  0
 12 13  1  0
 13 14  1  6
 14 15  1  0
 15 16  1  0
 16 17  2  0
 17 18  1  0
 18 19  2  0
 19 20  1  0
 17 21  1  0
 21 22  1  0
 22 23  1  0
 23 24  1  0
 24 25  1  0
 13 26  1  0
 26 27  1  1
 26 28  1  0
 28 29  1  0
 29 30  1  0
 30 31  1  0
 31 32  1  0
 30 33  1  0
 33 34  2  0
 34 35  1  0
 35 36  2  0
 36 37  1  0
 37 38  2  0
 35 39  1  0
 39 40  1  0
 39 41  1  0
  9  4  1  0
 20 15  2  0
 25  6  1  0
 32 30  1  0
 38 33  1  0
M  END
$$$$
