
     RDKit          3D

 41 45  0  0  0  0  0  0  0  0999 V2000
  -20.7404  -46.9681   -8.3629 C   0  0  0  0  0  0  0  0  0  0  0  0
  -20.0503  -45.9200   -7.8066 O   0  0  0  0  0  0  0  0  0  0  0  0
  -20.4656  -45.6400   -6.5125 C   0  0  0  0  0  0  0  0  0  0  0  0
  -20.4200  -44.1850   -6.2569 C   0  0  0  0  0  0  0  0  0  0  0  0
  -21.5299  -43.4347   -5.9788 C   0  0  0  0  0  0  0  0  0  0  0  0
  -21.4742  -42.0453   -5.7389 C   0  0  0  0  0  0  0  0  0  0  0  0
  -20.2633  -41.3722   -5.7728 C   0  0  0  0  0  0  0  0  0  0  0  0
  -19.1350  -42.0992   -6.0541 C   0  0  0  0  0  0  0  0  0  0  0  0
  -19.2387  -43.4980   -6.2895 C   0  0  0  0  0  0  0  0  0  0  0  0
  -17.7290  -41.6828   -6.2407 C   0  0  0  0  0  0  0  0  0  0  0  0
  -16.8493  -42.4568   -5.6676 O   0  0  0  0  0  0  0  0  0  0  0  0
  -17.1865  -40.5767   -6.9476 N   0  0  0  0  0  0  0  0  0  0  0  0
  -17.8717  -39.8179   -7.9917 C   0  0  1  0  0  0  0  0  0  0  0  0
  -18.5691  -38.6358   -7.3836 C   0  0  0  0  0  0  0  0  0  0  0  0
  -19.8855  -38.2503   -7.9666 C   0  0  0  0  0  0  0  0  0  0  0  0
  -21.0387  -38.9623   -8.1294 C   0  0  0  0  0  0  0  0  0  0  0  0
  -22.1639  -38.3218   -8.6312 C   0  0  0  0  0  0  0  0  0  0  0  0
  -22.0954  -36.9635   -8.9675 C   0  0  0  0  0  0  0  0  0  0  0  0
  -20.9605  -36.2065   -8.8261 C   0  0  0  0  0  0  0  0  0  0  0  0
  -19.8809  -36.8753   -8.3258 C   0  0  0  0  0  0  0  0  0  0  0  0
  -23.4207  -38.8368   -8.8646 O   0  0  0  0  0  0  0  0  0  0  0  0
  -24.3832  -39.5282   -8.1447 C   0  0  0  0  0  0  0  0  0  0  0  0
  -23.9096  -40.8118   -7.5061 C   0  0  0  0  0  0  0  0  0  0  0  0
  -23.5394  -40.5507   -6.0772 C   0  0  0  0  0  0  0  0  0  0  0  0
  -22.7416  -41.5433   -5.4946 O   0  0  0  0  0  0  0  0  0  0  0  0
  -16.9551  -39.4706   -9.1161 C   0  0  2  0  0  0  0  0  0  0  0  0
  -16.6736  -38.0933   -8.9900 O   0  0  0  0  0  0  0  0  0  0  0  0
  -17.4959  -39.6699  -10.4917 C   0  0  0  0  0  0  0  0  0  0  0  0
  -16.6591  -40.6660  -11.1368 N   0  0  0  0  0  0  0  0  0  0  0  0
  -15.5219  -40.1393  -11.8272 C   0  0  0  0  0  0  0  0  0  0  0  0
  -15.5526  -39.3793  -13.0608 C   0  0  0  0  0  0  0  0  0  0  0  0
  -15.2393  -40.8631  -13.1279 C   0  0  0  0  0  0  0  0  0  0  0  0
  -14.2850  -40.0268  -10.9770 C   0  0  0  0  0  0  0  0  0  0  0  0
  -14.3027  -40.2961   -9.6161 C   0  0  0  0  0  0  0  0  0  0  0  0
  -13.1809  -40.2056   -8.8266 C   0  0  0  0  0  0  0  0  0  0  0  0
  -11.9790  -39.8369   -9.3731 C   0  0  0  0  0  0  0  0  0  0  0  0
  -11.9154  -39.5594  -10.7245 C   0  0  0  0  0  0  0  0  0  0  0  0
  -13.0589  -39.6568  -11.5036 C   0  0  0  0  0  0  0  0  0  0  0  0
  -13.2538  -40.5020   -7.3884 C   0  0  0  0  0  0  0  0  0  0  0  0
  -13.9139  -39.3452   -6.6799 C   0  0  0  0  0  0  0  0  0  0  0  0
  -11.8834  -40.6968   -6.7781 C   0  0  0  0  0  0  0  0  0  0  0  0
  1  2  1  0
  2  3  1  0
  3  4  1  0
  4  5  2  0
  5  6  1  0
  6  7  2  0
  7  8  1  0
  8  9  2  0
  8 10  1  0
 10 11  2  0
 10 12  1  0
 12 13  1  0
 13 14  1  1
 14 15  1  0
 15 16  1  0
 16 17  2  0
 17 18  1  0
 18 19  2  0
 19 20  1  0
 17 21  1  0
 21 22  1  0
 22 23  1  0
 23 24  1  0
 24 25  1  0
 13 26  1  0
 26 27  1  1
 26 28  1  0
 28 29  1  0
 29 30  1  0
 30 31  1  0
 31 32  1  0
 30 33  1  0
 33 34  2  0
 34 35  1  0
 35 36  2  0
 36 37  1  0
 37 38  2  0
 35 39  1  0
 39 40  1  0
 39 41  1  0
  9  4  1  0
 20 15  2  0
 25  6  1  0
 32 30  1  0
 38 33  1  0
M  END
$$$$
