
     RDKit          3D

 41 44  0  0  0  0  0  0  0  0999 V2000
  -14.0095  -35.9361  -13.5760 C   0  0  0  0  0  0  0  0  0  0  0  0
  -14.8097  -37.0859  -13.0533 C   0  0  0  0  0  0  0  0  0  0  0  0
  -13.9449  -38.2536  -12.7290 C   0  0  0  0  0  0  0  0  0  0  0  0
  -13.8186  -38.7108  -11.4155 C   0  0  0  0  0  0  0  0  0  0  0  0
  -13.0170  -39.7931  -11.1281 C   0  0  0  0  0  0  0  0  0  0  0  0
  -12.9215  -40.2371   -9.7130 C   0  0  0  0  0  0  0  0  0  0  0  0
  -13.9841  -39.7280   -8.9103 N   0  0  0  0  0  0  0  0  0  0  0  0
  -15.3104  -40.1672   -9.2881 C   0  0  0  0  0  0  0  0  0  0  0  0
  -16.2970  -39.5003   -8.4171 C   0  0  1  0  0  0  0  0  0  0  0  0
  -16.4636  -38.1420   -8.6141 O   0  0  0  0  0  0  0  0  0  0  0  0
  -17.7074  -40.0866   -8.4509 C   0  0  2  0  0  0  0  0  0  0  0  0
  -18.6807  -39.0952   -9.0529 C   0  0  0  0  0  0  0  0  0  0  0  0
  -19.8368  -38.7686   -8.1414 C   0  0  0  0  0  0  0  0  0  0  0  0
  -20.9399  -39.5094   -7.8350 C   0  0  0  0  0  0  0  0  0  0  0  0
  -21.8588  -38.9561   -6.9464 C   0  0  0  0  0  0  0  0  0  0  0  0
  -21.6300  -37.6732   -6.3965 C   0  0  0  0  0  0  0  0  0  0  0  0
  -20.5262  -36.9146   -6.6932 C   0  0  0  0  0  0  0  0  0  0  0  0
  -19.6451  -37.4867   -7.5691 C   0  0  0  0  0  0  0  0  0  0  0  0
  -23.0419  -39.4847   -6.4738 O   0  0  0  0  0  0  0  0  0  0  0  0
  -24.2004  -40.0319   -6.9714 C   0  0  0  0  0  0  0  0  0  0  0  0
  -24.5211  -41.3996   -6.4200 C   0  0  0  0  0  0  0  0  0  0  0  0
  -23.8862  -42.4385   -7.3451 C   0  0  0  0  0  0  0  0  0  0  0  0
  -23.7302  -43.7149   -6.5759 C   0  0  0  0  0  0  0  0  0  0  0  0
  -22.4651  -44.1501   -6.4427 O   0  0  0  0  0  0  0  0  0  0  0  0
  -21.1333  -43.8728   -6.5256 C   0  0  0  0  0  0  0  0  0  0  0  0
  -20.4113  -45.0548   -6.8219 C   0  0  0  0  0  0  0  0  0  0  0  0
  -19.0516  -45.0951   -6.9653 C   0  0  0  0  0  0  0  0  0  0  0  0
  -18.4205  -43.8909   -6.7997 C   0  0  0  0  0  0  0  0  0  0  0  0
  -19.0882  -42.6777   -6.5042 C   0  0  0  0  0  0  0  0  0  0  0  0
  -20.4475  -42.6786   -6.3677 C   0  0  0  0  0  0  0  0  0  0  0  0
  -18.0892  -41.5867   -6.3904 C   0  0  0  0  0  0  0  0  0  0  0  0
  -17.0828  -41.7807   -5.5445 O   0  0  0  0  0  0  0  0  0  0  0  0
  -17.9885  -40.3398   -7.0249 N   0  0  0  0  0  0  0  0  0  0  0  0
  -18.3223  -46.3193   -7.2708 C   0  0  0  0  0  0  0  0  0  0  0  0
  -18.5578  -47.3076   -6.5348 O   0  0  0  0  0  0  0  0  0  0  0  0
  -17.3914  -46.4549   -8.3191 N   0  0  0  0  0  0  0  0  0  0  0  0
  -17.1202  -45.3529   -9.2064 C   0  0  0  0  0  0  0  0  0  0  0  0
  -16.7071  -47.7065   -8.5074 C   0  0  0  0  0  0  0  0  0  0  0  0
  -12.3740  -40.3827  -12.1294 N   0  0  0  0  0  0  0  0  0  0  0  0
  -12.4893  -39.9508  -13.3906 C   0  0  0  0  0  0  0  0  0  0  0  0
  -13.2672  -38.8996  -13.6753 N   0  0  0  0  0  0  0  0  0  0  0  0
  1  2  1  0
  2  3  1  0
  3  4  2  0
  4  5  1  0
  5  6  1  0
  6  7  1  0
  7  8  1  0
  8  9  1  0
  9 10  1  6
  9 11  1  0
 11 12  1  1
 12 13  1  0
 13 14  2  0
 14 15  1  0
 15 16  2  0
 16 17  1  0
 17 18  2  0
 15 19  1  0
 19 20  1  0
 20 21  1  0
 21 22  1  0
 22 23  1  0
 23 24  1  0
 24 25  1  0
 25 26  2  0
 26 27  1  0
 27 28  2  0
 28 29  1  0
 29 30  2  0
 29 31  1  0
 31 32  2  0
 31 33  1  0
 27 34  1  0
 34 35  2  0
 34 36  1  0
 36 37  1  0
 36 38  1  0
  5 39  2  0
 39 40  1  0
 40 41  2  0
 18 13  1  0
 30 25  1  0
 33 11  1  0
 41  3  1  0
M  END
$$$$
