
     RDKit          3D

 41 44  0  0  0  0  0  0  0  0999 V2000
  -12.7275  -35.9678  -11.2986 C   0  0  0  0  0  0  0  0  0  0  0  0
  -11.8898  -37.1773  -11.5653 C   0  0  0  0  0  0  0  0  0  0  0  0
  -11.9499  -38.1460  -10.4364 C   0  0  0  0  0  0  0  0  0  0  0  0
  -13.0934  -38.9151  -10.2102 C   0  0  0  0  0  0  0  0  0  0  0  0
  -13.1365  -39.8091   -9.1636 C   0  0  0  0  0  0  0  0  0  0  0  0
  -14.3785  -40.6024   -8.9715 C   0  0  0  0  0  0  0  0  0  0  0  0
  -15.3255  -40.3919  -10.0163 N   0  0  0  0  0  0  0  0  0  0  0  0
  -16.5715  -41.1149   -9.8771 C   0  0  0  0  0  0  0  0  0  0  0  0
  -17.6864  -40.1490   -9.9073 C   0  0  1  0  0  0  0  0  0  0  0  0
  -17.9809  -39.5972  -11.1403 O   0  0  0  0  0  0  0  0  0  0  0  0
  -19.0199  -40.6659   -9.3702 C   0  0  2  0  0  0  0  0  0  0  0  0
  -20.1487  -39.7389   -9.7690 C   0  0  0  0  0  0  0  0  0  0  0  0
  -20.9331  -39.2164   -8.5917 C   0  0  0  0  0  0  0  0  0  0  0  0
  -21.8611  -39.8458   -7.8158 C   0  0  0  0  0  0  0  0  0  0  0  0
  -22.4321  -39.1147   -6.7767 C   0  0  0  0  0  0  0  0  0  0  0  0
  -22.0437  -37.7725   -6.5566 C   0  0  0  0  0  0  0  0  0  0  0  0
  -21.1119  -37.1241   -7.3266 C   0  0  0  0  0  0  0  0  0  0  0  0
  -20.5721  -37.8700   -8.3382 C   0  0  0  0  0  0  0  0  0  0  0  0
  -23.3816  -39.5045   -5.8552 O   0  0  0  0  0  0  0  0  0  0  0  0
  -24.6347  -40.0690   -5.8390 C   0  0  0  0  0  0  0  0  0  0  0  0
  -24.7376  -41.3142   -4.9925 C   0  0  0  0  0  0  0  0  0  0  0  0
  -24.4415  -42.5165   -5.8898 C   0  0  0  0  0  0  0  0  0  0  0  0
  -24.0231  -43.6592   -5.0156 C   0  0  0  0  0  0  0  0  0  0  0  0
  -22.7830  -44.1267   -5.2420 O   0  0  0  0  0  0  0  0  0  0  0  0
  -21.5598  -43.9294   -5.8096 C   0  0  0  0  0  0  0  0  0  0  0  0
  -20.9685  -45.1763   -6.1287 C   0  0  0  0  0  0  0  0  0  0  0  0
  -19.7363  -45.3031   -6.7090 C   0  0  0  0  0  0  0  0  0  0  0  0
  -19.0980  -44.1191   -6.9666 C   0  0  0  0  0  0  0  0  0  0  0  0
  -19.6388  -42.8441   -6.6715 C   0  0  0  0  0  0  0  0  0  0  0  0
  -20.8725  -42.7590   -6.0910 C   0  0  0  0  0  0  0  0  0  0  0  0
  -18.6704  -41.7973   -7.0812 C   0  0  0  0  0  0  0  0  0  0  0  0
  -17.4360  -41.9007   -6.6000 O   0  0  0  0  0  0  0  0  0  0  0  0
  -18.8015  -40.6742   -7.9111 N   0  0  0  0  0  0  0  0  0  0  0  0
  -19.1409  -46.5934   -7.0320 C   0  0  0  0  0  0  0  0  0  0  0  0
  -19.5492  -47.1499   -8.0796 O   0  0  0  0  0  0  0  0  0  0  0  0
  -18.1570  -47.2367   -6.2559 N   0  0  0  0  0  0  0  0  0  0  0  0
  -17.6762  -48.5453   -6.6189 C   0  0  0  0  0  0  0  0  0  0  0  0
  -17.6295  -46.5822   -5.0882 C   0  0  0  0  0  0  0  0  0  0  0  0
  -12.0670  -39.9159   -8.3836 N   0  0  0  0  0  0  0  0  0  0  0  0
  -10.9675  -39.1827   -8.5933 C   0  0  0  0  0  0  0  0  0  0  0  0
  -10.9205  -38.3125   -9.6091 N   0  0  0  0  0  0  0  0  0  0  0  0
  1  2  1  0
  2  3  1  0
  3  4  2  0
  4  5  1  0
  5  6  1  0
  6  7  1  0
  7  8  1  0
  8  9  1  0
  9 10  1  6
  9 11  1  0
 11 12  1  1
 12 13  1  0
 13 14  2  0
 14 15  1  0
 15 16  2  0
 16 17  1  0
 17 18  2  0
 15 19  1  0
 19 20  1  0
 20 21  1  0
 21 22  1  0
 22 23  1  0
 23 24  1  0
 24 25  1  0
 25 26  2  0
 26 27  1  0
 27 28  2  0
 28 29  1  0
 29 30  2  0
 29 31  1  0
 31 32  2  0
 31 33  1  0
 27 34  1  0
 34 35  2  0
 34 36  1  0
 36 37  1  0
 36 38  1  0
  5 39  2  0
 39 40  1  0
 40 41  2  0
 18 13  1  0
 30 25  1  0
 33 11  1  0
 41  3  1  0
M  END
$$$$
