
     RDKit          3D

 41 44  0  0  0  0  0  0  0  0999 V2000
  -21.0239  -40.1736   -1.0955 C   0  0  0  0  0  0  0  0  0  0  0  0
  -22.1506  -40.1105   -2.0764 C   0  0  0  0  0  0  0  0  0  0  0  0
  -21.7124  -40.5113   -3.4416 C   0  0  0  0  0  0  0  0  0  0  0  0
  -20.4441  -41.0541   -3.6583 C   0  0  0  0  0  0  0  0  0  0  0  0
  -20.0507  -41.4228   -4.9255 C   0  0  0  0  0  0  0  0  0  0  0  0
  -18.6906  -41.9968   -5.0968 C   0  0  0  0  0  0  0  0  0  0  0  0
  -18.0329  -41.4996   -6.2599 N   0  0  0  0  0  0  0  0  0  0  0  0
  -16.6453  -41.1313   -6.0765 C   0  0  0  0  0  0  0  0  0  0  0  0
  -16.3763  -39.8989   -6.8418 C   0  0  1  0  0  0  0  0  0  0  0  0
  -15.0613  -39.4730   -6.8680 O   0  0  0  0  0  0  0  0  0  0  0  0
  -16.8198  -39.9220   -8.3036 C   0  0  2  0  0  0  0  0  0  0  0  0
  -15.7331  -39.3628   -9.1975 C   0  0  0  0  0  0  0  0  0  0  0  0
  -16.1953  -38.1999  -10.0390 C   0  0  0  0  0  0  0  0  0  0  0  0
  -16.9768  -38.1903  -11.1564 C   0  0  0  0  0  0  0  0  0  0  0  0
  -17.2540  -36.9544  -11.7359 C   0  0  0  0  0  0  0  0  0  0  0  0
  -16.7328  -35.7700  -11.1647 C   0  0  0  0  0  0  0  0  0  0  0  0
  -15.9456  -35.7611  -10.0413 C   0  0  0  0  0  0  0  0  0  0  0  0
  -15.6922  -36.9907   -9.4984 C   0  0  0  0  0  0  0  0  0  0  0  0
  -18.0074  -36.6651  -12.8545 O   0  0  0  0  0  0  0  0  0  0  0  0
  -18.0844  -37.0425  -14.1740 C   0  0  0  0  0  0  0  0  0  0  0  0
  -19.4504  -37.5247  -14.5972 C   0  0  0  0  0  0  0  0  0  0  0  0
  -19.4999  -39.0381  -14.3837 C   0  0  0  0  0  0  0  0  0  0  0  0
  -20.9376  -39.4484  -14.2847 C   0  0  0  0  0  0  0  0  0  0  0  0
  -21.2889  -40.0208  -13.1200 O   0  0  0  0  0  0  0  0  0  0  0  0
  -20.9831  -40.2658  -11.8146 C   0  0  0  0  0  0  0  0  0  0  0  0
  -21.5762  -41.4832  -11.3998 C   0  0  0  0  0  0  0  0  0  0  0  0
  -21.4498  -41.9952  -10.1377 C   0  0  0  0  0  0  0  0  0  0  0  0
  -20.6956  -41.2362   -9.2827 C   0  0  0  0  0  0  0  0  0  0  0  0
  -20.0779  -40.0132   -9.6403 C   0  0  0  0  0  0  0  0  0  0  0  0
  -20.2283  -39.5344  -10.9109 C   0  0  0  0  0  0  0  0  0  0  0  0
  -19.3522  -39.4718   -8.4649 C   0  0  0  0  0  0  0  0  0  0  0  0
  -20.0497  -39.3290   -7.3428 O   0  0  0  0  0  0  0  0  0  0  0  0
  -18.0209  -39.0653   -8.2927 N   0  0  0  0  0  0  0  0  0  0  0  0
  -22.0658  -43.2499   -9.7255 C   0  0  0  0  0  0  0  0  0  0  0  0
  -21.5000  -44.3019  -10.1091 O   0  0  0  0  0  0  0  0  0  0  0  0
  -23.2307  -43.3486   -8.9399 N   0  0  0  0  0  0  0  0  0  0  0  0
  -23.7766  -44.6366   -8.5959 C   0  0  0  0  0  0  0  0  0  0  0  0
  -23.8834  -42.1519   -8.4792 C   0  0  0  0  0  0  0  0  0  0  0  0
  -20.9068  -41.2474   -5.9255 N   0  0  0  0  0  0  0  0  0  0  0  0
  -22.1237  -40.7278   -5.7266 C   0  0  0  0  0  0  0  0  0  0  0  0
  -22.5110  -40.3682   -4.4970 N   0  0  0  0  0  0  0  0  0  0  0  0
  1  2  1  0
  2  3  1  0
  3  4  2  0
  4  5  1  0
  5  6  1  0
  6  7  1  0
  7  8  1  0
  8  9  1  0
  9 10  1  6
  9 11  1  0
 11 12  1  6
 12 13  1  0
 13 14  2  0
 14 15  1  0
 15 16  2  0
 16 17  1  0
 17 18  2  0
 15 19  1  0
 19 20  1  0
 20 21  1  0
 21 22  1  0
 22 23  1  0
 23 24  1  0
 24 25  1  0
 25 26  2  0
 26 27  1  0
 27 28  2  0
 28 29  1  0
 29 30  2  0
 29 31  1  0
 31 32  2  0
 31 33  1  0
 27 34  1  0
 34 35  2  0
 34 36  1  0
 36 37  1  0
 36 38  1  0
  5 39  2  0
 39 40  1  0
 40 41  2  0
 18 13  1  0
 30 25  1  0
 33 11  1  0
 41  3  1  0
M  END
$$$$
