
     RDKit          3D

 41 44  0  0  0  0  0  0  0  0999 V2000
  -11.6987  -44.2534   -9.4296 C   0  0  0  0  0  0  0  0  0  0  0  0
  -11.0329  -43.3990  -10.4603 C   0  0  0  0  0  0  0  0  0  0  0  0
  -11.9984  -42.4701  -11.1096 C   0  0  0  0  0  0  0  0  0  0  0  0
  -12.5355  -41.3878  -10.4093 C   0  0  0  0  0  0  0  0  0  0  0  0
  -13.4263  -40.5343  -11.0211 C   0  0  0  0  0  0  0  0  0  0  0  0
  -13.9645  -39.3984  -10.2283 C   0  0  0  0  0  0  0  0  0  0  0  0
  -14.6161  -39.8281   -9.0352 N   0  0  0  0  0  0  0  0  0  0  0  0
  -15.8813  -40.5034   -9.2299 C   0  0  0  0  0  0  0  0  0  0  0  0
  -16.9731  -39.5290   -9.0414 C   0  0  1  0  0  0  0  0  0  0  0  0
  -17.1381  -38.5968  -10.0489 O   0  0  0  0  0  0  0  0  0  0  0  0
  -18.3602  -40.1295   -8.8192 C   0  0  2  0  0  0  0  0  0  0  0  0
  -19.4290  -39.0670   -8.9660 C   0  0  0  0  0  0  0  0  0  0  0  0
  -20.3065  -38.9340   -7.7468 C   0  0  0  0  0  0  0  0  0  0  0  0
  -21.3139  -39.7411   -7.3073 C   0  0  0  0  0  0  0  0  0  0  0  0
  -21.9622  -39.3759   -6.1298 C   0  0  0  0  0  0  0  0  0  0  0  0
  -21.5684  -38.2080   -5.4358 C   0  0  0  0  0  0  0  0  0  0  0  0
  -20.5574  -37.3852   -5.8631 C   0  0  0  0  0  0  0  0  0  0  0  0
  -19.9429  -37.7720   -7.0223 C   0  0  0  0  0  0  0  0  0  0  0  0
  -22.9994  -40.0058   -5.4740 O   0  0  0  0  0  0  0  0  0  0  0  0
  -24.2600  -40.4793   -5.7497 C   0  0  0  0  0  0  0  0  0  0  0  0
  -24.4648  -41.9302   -5.3888 C   0  0  0  0  0  0  0  0  0  0  0  0
  -24.1127  -42.7724   -6.6157 C   0  0  0  0  0  0  0  0  0  0  0  0
  -23.7989  -44.1625   -6.1528 C   0  0  0  0  0  0  0  0  0  0  0  0
  -22.5531  -44.5876   -6.4264 O   0  0  0  0  0  0  0  0  0  0  0  0
  -21.2795  -44.2718   -6.7947 C   0  0  0  0  0  0  0  0  0  0  0  0
  -20.6870  -45.3657   -7.4717 C   0  0  0  0  0  0  0  0  0  0  0  0
  -19.4099  -45.3507   -7.9615 C   0  0  0  0  0  0  0  0  0  0  0  0
  -18.7269  -44.1827   -7.7494 C   0  0  0  0  0  0  0  0  0  0  0  0
  -19.2663  -43.0568   -7.0814 C   0  0  0  0  0  0  0  0  0  0  0  0
  -20.5458  -43.1110   -6.6056 C   0  0  0  0  0  0  0  0  0  0  0  0
  -18.2437  -41.9830   -7.0324 C   0  0  0  0  0  0  0  0  0  0  0  0
  -17.0605  -42.3043   -6.5195 O   0  0  0  0  0  0  0  0  0  0  0  0
  -18.2758  -40.6406   -7.4378 N   0  0  0  0  0  0  0  0  0  0  0  0
  -18.8139  -46.4844   -8.6567 C   0  0  0  0  0  0  0  0  0  0  0  0
  -18.9134  -46.4874   -9.9073 O   0  0  0  0  0  0  0  0  0  0  0  0
  -18.1479  -47.5512   -8.0222 N   0  0  0  0  0  0  0  0  0  0  0  0
  -17.6969  -48.6896   -8.7811 C   0  0  0  0  0  0  0  0  0  0  0  0
  -17.9187  -47.5050   -6.6025 C   0  0  0  0  0  0  0  0  0  0  0  0
  -13.7558  -40.7705  -12.2858 N   0  0  0  0  0  0  0  0  0  0  0  0
  -13.2460  -41.8053  -12.9639 C   0  0  0  0  0  0  0  0  0  0  0  0
  -12.3796  -42.6375  -12.3740 N   0  0  0  0  0  0  0  0  0  0  0  0
  1  2  1  0
  2  3  1  0
  3  4  2  0
  4  5  1  0
  5  6  1  0
  6  7  1  0
  7  8  1  0
  8  9  1  0
  9 10  1  6
  9 11  1  0
 11 12  1  1
 12 13  1  0
 13 14  2  0
 14 15  1  0
 15 16  2  0
 16 17  1  0
 17 18  2  0
 15 19  1  0
 19 20  1  0
 20 21  1  0
 21 22  1  0
 22 23  1  0
 23 24  1  0
 24 25  1  0
 25 26  2  0
 26 27  1  0
 27 28  2  0
 28 29  1  0
 29 30  2  0
 29 31  1  0
 31 32  2  0
 31 33  1  0
 27 34  1  0
 34 35  2  0
 34 36  1  0
 36 37  1  0
 36 38  1  0
  5 39  2  0
 39 40  1  0
 40 41  2  0
 18 13  1  0
 30 25  1  0
 33 11  1  0
 41  3  1  0
M  END
$$$$
