
     RDKit          3D

 41 44  0  0  0  0  0  0  0  0999 V2000
  -21.8773  -41.0151   -3.7626 C   0  0  0  0  0  0  0  0  0  0  0  0
  -22.6912  -41.3812   -4.9622 C   0  0  0  0  0  0  0  0  0  0  0  0
  -22.4514  -40.4446   -6.0944 C   0  0  0  0  0  0  0  0  0  0  0  0
  -21.4643  -39.4599   -6.0150 C   0  0  0  0  0  0  0  0  0  0  0  0
  -21.2505  -38.6005   -7.0697 C   0  0  0  0  0  0  0  0  0  0  0  0
  -20.1856  -37.5733   -6.9305 C   0  0  0  0  0  0  0  0  0  0  0  0
  -18.9587  -37.9763   -7.5347 N   0  0  0  0  0  0  0  0  0  0  0  0
  -18.0741  -38.7454   -6.6858 C   0  0  0  0  0  0  0  0  0  0  0  0
  -16.7591  -38.8542   -7.3460 C   0  0  1  0  0  0  0  0  0  0  0  0
  -15.6785  -38.3659   -6.6352 O   0  0  0  0  0  0  0  0  0  0  0  0
  -16.3531  -40.2629   -7.7760 C   0  0  2  0  0  0  0  0  0  0  0  0
  -14.8967  -40.2933   -8.1892 C   0  0  0  0  0  0  0  0  0  0  0  0
  -14.6874  -40.8043   -9.5925 C   0  0  0  0  0  0  0  0  0  0  0  0
  -14.7438  -42.0796  -10.0718 C   0  0  0  0  0  0  0  0  0  0  0  0
  -14.5103  -42.2654  -11.4324 C   0  0  0  0  0  0  0  0  0  0  0  0
  -14.2294  -41.1549  -12.2622 C   0  0  0  0  0  0  0  0  0  0  0  0
  -14.1692  -39.8658  -11.7972 C   0  0  0  0  0  0  0  0  0  0  0  0
  -14.4022  -39.7189  -10.4574 C   0  0  0  0  0  0  0  0  0  0  0  0
  -14.5070  -43.4341  -12.1650 O   0  0  0  0  0  0  0  0  0  0  0  0
  -13.9153  -44.6742  -12.1290 C   0  0  0  0  0  0  0  0  0  0  0  0
  -14.8928  -45.8235  -12.1603 C   0  0  0  0  0  0  0  0  0  0  0  0
  -15.2393  -46.1834  -10.7151 C   0  0  0  0  0  0  0  0  0  0  0  0
  -16.5464  -46.9161  -10.7174 C   0  0  0  0  0  0  0  0  0  0  0  0
  -17.5338  -46.3239  -10.0232 O   0  0  0  0  0  0  0  0  0  0  0  0
  -18.0054  -45.1980   -9.4171 C   0  0  0  0  0  0  0  0  0  0  0  0
  -18.8766  -45.5489   -8.3569 C   0  0  0  0  0  0  0  0  0  0  0  0
  -19.5088  -44.6326   -7.5621 C   0  0  0  0  0  0  0  0  0  0  0  0
  -19.2383  -43.3248   -7.8659 C   0  0  0  0  0  0  0  0  0  0  0  0
  -18.3764  -42.9138   -8.9115 C   0  0  0  0  0  0  0  0  0  0  0  0
  -17.7639  -43.8594   -9.6841 C   0  0  0  0  0  0  0  0  0  0  0  0
  -18.3281  -41.4313   -8.9489 C   0  0  0  0  0  0  0  0  0  0  0  0
  -19.4920  -40.7950   -9.0294 O   0  0  0  0  0  0  0  0  0  0  0  0
  -17.2552  -40.5286   -8.9128 N   0  0  0  0  0  0  0  0  0  0  0  0
  -20.4024  -45.0089   -6.4742 C   0  0  0  0  0  0  0  0  0  0  0  0
  -19.8874  -45.6455   -5.5237 O   0  0  0  0  0  0  0  0  0  0  0  0
  -21.7774  -44.7066   -6.4279 N   0  0  0  0  0  0  0  0  0  0  0  0
  -22.5765  -45.0967   -5.2945 C   0  0  0  0  0  0  0  0  0  0  0  0
  -22.3902  -44.0044   -7.5241 C   0  0  0  0  0  0  0  0  0  0  0  0
  -22.0052  -38.7360   -8.1539 N   0  0  0  0  0  0  0  0  0  0  0  0
  -22.9532  -39.6766   -8.2380 C   0  0  0  0  0  0  0  0  0  0  0  0
  -23.1648  -40.5144   -7.2160 N   0  0  0  0  0  0  0  0  0  0  0  0
  1  2  1  0
  2  3  1  0
  3  4  2  0
  4  5  1  0
  5  6  1  0
  6  7  1  0
  7  8  1  0
  8  9  1  0
  9 10  1  1
  9 11  1  0
 11 12  1  6
 12 13  1  0
 13 14  2  0
 14 15  1  0
 15 16  2  0
 16 17  1  0
 17 18  2  0
 15 19  1  0
 19 20  1  0
 20 21  1  0
 21 22  1  0
 22 23  1  0
 23 24  1  0
 24 25  1  0
 25 26  2  0
 26 27  1  0
 27 28  2  0
 28 29  1  0
 29 30  2  0
 29 31  1  0
 31 32  2  0
 31 33  1  0
 27 34  1  0
 34 35  2  0
 34 36  1  0
 36 37  1  0
 36 38  1  0
  5 39  2  0
 39 40  1  0
 40 41  2  0
 18 13  1  0
 30 25  1  0
 33 11  1  0
 41  3  1  0
M  END
$$$$
