
     RDKit          3D

 41 44  0  0  0  0  0  0  0  0999 V2000
  -24.8425  -41.2445   -4.7492 C   0  0  0  0  0  0  0  0  0  0  0  0
  -23.4713  -40.9622   -4.2242 C   0  0  0  0  0  0  0  0  0  0  0  0
  -22.6999  -40.0858   -5.1479 C   0  0  0  0  0  0  0  0  0  0  0  0
  -21.4077  -39.6648   -4.8268 C   0  0  0  0  0  0  0  0  0  0  0  0
  -20.7033  -38.8556   -5.6902 C   0  0  0  0  0  0  0  0  0  0  0  0
  -19.3315  -38.4398   -5.2977 C   0  0  0  0  0  0  0  0  0  0  0  0
  -18.4302  -39.5417   -5.2205 N   0  0  0  0  0  0  0  0  0  0  0  0
  -17.0253  -39.1950   -5.2443 C   0  0  0  0  0  0  0  0  0  0  0  0
  -16.7483  -38.4206   -6.4692 C   0  0  1  0  0  0  0  0  0  0  0  0
  -15.7906  -37.4296   -6.3597 O   0  0  0  0  0  0  0  0  0  0  0  0
  -16.3369  -39.2432   -7.6891 C   0  0  2  0  0  0  0  0  0  0  0  0
  -14.9129  -38.9218   -8.0910 C   0  0  0  0  0  0  0  0  0  0  0  0
  -14.7894  -38.4540   -9.5193 C   0  0  0  0  0  0  0  0  0  0  0  0
  -14.8460  -39.1707  -10.6779 C   0  0  0  0  0  0  0  0  0  0  0  0
  -14.7039  -38.4708  -11.8739 C   0  0  0  0  0  0  0  0  0  0  0  0
  -14.5113  -37.0697  -11.8573 C   0  0  0  0  0  0  0  0  0  0  0  0
  -14.4522  -36.3330  -10.7017 C   0  0  0  0  0  0  0  0  0  0  0  0
  -14.5942  -37.0509   -9.5461 C   0  0  0  0  0  0  0  0  0  0  0  0
  -14.7217  -38.9449  -13.1690 O   0  0  0  0  0  0  0  0  0  0  0  0
  -14.0967  -39.9075  -13.9254 C   0  0  0  0  0  0  0  0  0  0  0  0
  -15.0436  -40.8573  -14.6171 C   0  0  0  0  0  0  0  0  0  0  0  0
  -15.2782  -42.0466  -13.6850 C   0  0  0  0  0  0  0  0  0  0  0  0
  -16.5626  -42.7066  -14.0850 C   0  0  0  0  0  0  0  0  0  0  0  0
  -17.5140  -42.7266  -13.1353 O   0  0  0  0  0  0  0  0  0  0  0  0
  -17.9710  -42.2389  -11.9475 C   0  0  0  0  0  0  0  0  0  0  0  0
  -18.7561  -43.2193  -11.2927 C   0  0  0  0  0  0  0  0  0  0  0  0
  -19.3546  -43.0224  -10.0787 C   0  0  0  0  0  0  0  0  0  0  0  0
  -19.1403  -41.7877   -9.5259 C   0  0  0  0  0  0  0  0  0  0  0  0
  -18.3651  -40.7695  -10.1319 C   0  0  0  0  0  0  0  0  0  0  0  0
  -17.7839  -41.0043  -11.3457 C   0  0  0  0  0  0  0  0  0  0  0  0
  -18.3583  -39.5740   -9.2531 C   0  0  0  0  0  0  0  0  0  0  0  0
  -19.5412  -39.0970   -8.8800 O   0  0  0  0  0  0  0  0  0  0  0  0
  -17.3094  -38.8155   -8.7128 N   0  0  0  0  0  0  0  0  0  0  0  0
  -20.1594  -44.0412   -9.4168 C   0  0  0  0  0  0  0  0  0  0  0  0
  -21.3574  -44.1284   -9.7788 O   0  0  0  0  0  0  0  0  0  0  0  0
  -19.6824  -44.9133   -8.4187 N   0  0  0  0  0  0  0  0  0  0  0  0
  -18.2680  -45.0627   -8.1901 C   0  0  0  0  0  0  0  0  0  0  0  0
  -20.6163  -45.6641   -7.6224 C   0  0  0  0  0  0  0  0  0  0  0  0
  -21.2858  -38.4913   -6.8267 N   0  0  0  0  0  0  0  0  0  0  0  0
  -22.5236  -38.8900   -7.1420 C   0  0  0  0  0  0  0  0  0  0  0  0
  -23.2123  -39.6767   -6.3065 N   0  0  0  0  0  0  0  0  0  0  0  0
  1  2  1  0
  2  3  1  0
  3  4  2  0
  4  5  1  0
  5  6  1  0
  6  7  1  0
  7  8  1  0
  8  9  1  0
  9 10  1  1
  9 11  1  0
 11 12  1  6
 12 13  1  0
 13 14  2  0
 14 15  1  0
 15 16  2  0
 16 17  1  0
 17 18  2  0
 15 19  1  0
 19 20  1  0
 20 21  1  0
 21 22  1  0
 22 23  1  0
 23 24  1  0
 24 25  1  0
 25 26  2  0
 26 27  1  0
 27 28  2  0
 28 29  1  0
 29 30  2  0
 29 31  1  0
 31 32  2  0
 31 33  1  0
 27 34  1  0
 34 35  2  0
 34 36  1  0
 36 37  1  0
 36 38  1  0
  5 39  2  0
 39 40  1  0
 40 41  2  0
 18 13  1  0
 30 25  1  0
 33 11  1  0
 41  3  1  0
M  END
$$$$
