
     RDKit          3D

 41 44  0  0  0  0  0  0  0  0999 V2000
  -12.4524  -36.4790  -13.1763 C   0  0  0  0  0  0  0  0  0  0  0  0
  -11.4478  -37.0318  -12.2168 C   0  0  0  0  0  0  0  0  0  0  0  0
  -11.6918  -38.4736  -11.9373 C   0  0  0  0  0  0  0  0  0  0  0  0
  -12.5852  -38.8707  -10.9401 C   0  0  0  0  0  0  0  0  0  0  0  0
  -12.8040  -40.2075  -10.6920 C   0  0  0  0  0  0  0  0  0  0  0  0
  -13.7669  -40.5720   -9.6203 C   0  0  0  0  0  0  0  0  0  0  0  0
  -14.9405  -39.7631   -9.6453 N   0  0  0  0  0  0  0  0  0  0  0  0
  -16.1114  -40.3888  -10.2216 C   0  0  0  0  0  0  0  0  0  0  0  0
  -17.2738  -39.5048  -10.0113 C   0  0  1  0  0  0  0  0  0  0  0  0
  -17.6387  -38.7130  -11.0842 O   0  0  0  0  0  0  0  0  0  0  0  0
  -18.5600  -40.2022   -9.5714 C   0  0  2  0  0  0  0  0  0  0  0  0
  -19.7660  -39.3454   -9.8939 C   0  0  0  0  0  0  0  0  0  0  0  0
  -20.6157  -39.0364   -8.6869 C   0  0  0  0  0  0  0  0  0  0  0  0
  -21.4914  -39.8342   -8.0116 C   0  0  0  0  0  0  0  0  0  0  0  0
  -22.1465  -39.2830   -6.9128 C   0  0  0  0  0  0  0  0  0  0  0  0
  -21.8923  -37.9444   -6.5333 C   0  0  0  0  0  0  0  0  0  0  0  0
  -21.0148  -37.1281   -7.2006 C   0  0  0  0  0  0  0  0  0  0  0  0
  -20.3898  -37.6998   -8.2745 C   0  0  0  0  0  0  0  0  0  0  0  0
  -23.0688  -39.8625   -6.0666 O   0  0  0  0  0  0  0  0  0  0  0  0
  -24.2621  -40.5400   -6.1473 C   0  0  0  0  0  0  0  0  0  0  0  0
  -24.2585  -41.8777   -5.4489 C   0  0  0  0  0  0  0  0  0  0  0  0
  -23.8341  -42.9368   -6.4670 C   0  0  0  0  0  0  0  0  0  0  0  0
  -23.3220  -44.1276   -5.7155 C   0  0  0  0  0  0  0  0  0  0  0  0
  -22.0393  -44.4482   -5.9594 O   0  0  0  0  0  0  0  0  0  0  0  0
  -20.8317  -44.0738   -6.4684 C   0  0  0  0  0  0  0  0  0  0  0  0
  -20.1185  -45.2153   -6.9092 C   0  0  0  0  0  0  0  0  0  0  0  0
  -18.8707  -45.1593   -7.4668 C   0  0  0  0  0  0  0  0  0  0  0  0
  -18.3448  -43.8991   -7.5729 C   0  0  0  0  0  0  0  0  0  0  0  0
  -19.0102  -42.7224   -7.1514 C   0  0  0  0  0  0  0  0  0  0  0  0
  -20.2555  -42.8198   -6.5983 C   0  0  0  0  0  0  0  0  0  0  0  0
  -18.1403  -41.5497   -7.4151 C   0  0  0  0  0  0  0  0  0  0  0  0
  -16.9095  -41.5914   -6.9156 O   0  0  0  0  0  0  0  0  0  0  0  0
  -18.3653  -40.3564   -8.1171 N   0  0  0  0  0  0  0  0  0  0  0  0
  -18.1490  -46.3429   -7.9163 C   0  0  0  0  0  0  0  0  0  0  0  0
  -17.8571  -47.1868   -7.0351 O   0  0  0  0  0  0  0  0  0  0  0  0
  -17.7697  -46.5895   -9.2502 N   0  0  0  0  0  0  0  0  0  0  0  0
  -18.3624  -45.8441  -10.3311 C   0  0  0  0  0  0  0  0  0  0  0  0
  -16.7834  -47.5973   -9.5363 C   0  0  0  0  0  0  0  0  0  0  0  0
  -12.1450  -41.0988  -11.4235 N   0  0  0  0  0  0  0  0  0  0  0  0
  -11.2870  -40.7268  -12.3807 C   0  0  0  0  0  0  0  0  0  0  0  0
  -11.0711  -39.4289  -12.6259 N   0  0  0  0  0  0  0  0  0  0  0  0
  1  2  1  0
  2  3  1  0
  3  4  2  0
  4  5  1  0
  5  6  1  0
  6  7  1  0
  7  8  1  0
  8  9  1  0
  9 10  1  6
  9 11  1  0
 11 12  1  1
 12 13  1  0
 13 14  2  0
 14 15  1  0
 15 16  2  0
 16 17  1  0
 17 18  2  0
 15 19  1  0
 19 20  1  0
 20 21  1  0
 21 22  1  0
 22 23  1  0
 23 24  1  0
 24 25  1  0
 25 26  2  0
 26 27  1  0
 27 28  2  0
 28 29  1  0
 29 30  2  0
 29 31  1  0
 31 32  2  0
 31 33  1  0
 27 34  1  0
 34 35  2  0
 34 36  1  0
 36 37  1  0
 36 38  1  0
  5 39  2  0
 39 40  1  0
 40 41  2  0
 18 13  1  0
 30 25  1  0
 33 11  1  0
 41  3  1  0
M  END
$$$$
