
     RDKit          3D

 41 44  0  0  0  0  0  0  0  0999 V2000
  -14.6978  -36.0217  -13.3833 C   0  0  0  0  0  0  0  0  0  0  0  0
  -14.7879  -35.9015  -11.8957 C   0  0  0  0  0  0  0  0  0  0  0  0
  -16.2005  -35.9391  -11.4269 C   0  0  0  0  0  0  0  0  0  0  0  0
  -16.5083  -36.2356  -10.0974 C   0  0  0  0  0  0  0  0  0  0  0  0
  -17.8187  -36.2657   -9.6751 C   0  0  0  0  0  0  0  0  0  0  0  0
  -18.0872  -36.5852   -8.2488 C   0  0  0  0  0  0  0  0  0  0  0  0
  -17.6895  -37.9101   -7.9039 N   0  0  0  0  0  0  0  0  0  0  0  0
  -16.9499  -38.0318   -6.6658 C   0  0  0  0  0  0  0  0  0  0  0  0
  -15.7840  -38.9068   -6.8937 C   0  0  1  0  0  0  0  0  0  0  0  0
  -14.7617  -38.8128   -5.9677 O   0  0  0  0  0  0  0  0  0  0  0  0
  -16.0921  -40.3993   -7.0010 C   0  0  2  0  0  0  0  0  0  0  0  0
  -14.8107  -41.2049   -7.0428 C   0  0  0  0  0  0  0  0  0  0  0  0
  -14.7003  -42.0834   -8.2635 C   0  0  0  0  0  0  0  0  0  0  0  0
  -15.3282  -43.2596   -8.5491 C   0  0  0  0  0  0  0  0  0  0  0  0
  -15.0384  -43.8625   -9.7709 C   0  0  0  0  0  0  0  0  0  0  0  0
  -14.1248  -43.2543  -10.6631 C   0  0  0  0  0  0  0  0  0  0  0  0
  -13.4846  -42.0716  -10.3924 C   0  0  0  0  0  0  0  0  0  0  0  0
  -13.7908  -41.5073   -9.1847 C   0  0  0  0  0  0  0  0  0  0  0  0
  -15.5273  -45.0384  -10.3008 O   0  0  0  0  0  0  0  0  0  0  0  0
  -15.6552  -46.3589   -9.9413 C   0  0  0  0  0  0  0  0  0  0  0  0
  -17.0650  -46.8887  -10.0370 C   0  0  0  0  0  0  0  0  0  0  0  0
  -17.7386  -46.6762   -8.6807 C   0  0  0  0  0  0  0  0  0  0  0  0
  -19.2223  -46.6914   -8.8893 C   0  0  0  0  0  0  0  0  0  0  0  0
  -19.8583  -45.5572   -8.5480 O   0  0  0  0  0  0  0  0  0  0  0  0
  -19.7730  -44.2309   -8.2458 C   0  0  0  0  0  0  0  0  0  0  0  0
  -20.8366  -43.8619   -7.3863 C   0  0  0  0  0  0  0  0  0  0  0  0
  -21.0197  -42.5924   -6.9109 C   0  0  0  0  0  0  0  0  0  0  0  0
  -20.0865  -41.6818   -7.3300 C   0  0  0  0  0  0  0  0  0  0  0  0
  -19.0023  -41.9918   -8.1864 C   0  0  0  0  0  0  0  0  0  0  0  0
  -18.8539  -43.2715   -8.6411 C   0  0  0  0  0  0  0  0  0  0  0  0
  -18.2063  -40.7635   -8.4292 C   0  0  0  0  0  0  0  0  0  0  0  0
  -18.8651  -39.7010   -8.8800 O   0  0  0  0  0  0  0  0  0  0  0  0
  -16.8406  -40.4864   -8.2695 N   0  0  0  0  0  0  0  0  0  0  0  0
  -22.1191  -42.2277   -6.0266 C   0  0  0  0  0  0  0  0  0  0  0  0
  -22.0893  -42.7125   -4.8698 O   0  0  0  0  0  0  0  0  0  0  0  0
  -23.1873  -41.3826   -6.3855 N   0  0  0  0  0  0  0  0  0  0  0  0
  -23.4149  -40.1478   -5.6792 C   0  0  0  0  0  0  0  0  0  0  0  0
  -24.0611  -41.7574   -7.4654 C   0  0  0  0  0  0  0  0  0  0  0  0
  -18.7715  -36.0066  -10.5633 N   0  0  0  0  0  0  0  0  0  0  0  0
  -18.4852  -35.7218  -11.8390 C   0  0  0  0  0  0  0  0  0  0  0  0
  -17.2133  -35.6911  -12.2544 N   0  0  0  0  0  0  0  0  0  0  0  0
  1  2  1  0
  2  3  1  0
  3  4  2  0
  4  5  1  0
  5  6  1  0
  6  7  1  0
  7  8  1  0
  8  9  1  0
  9 10  1  1
  9 11  1  0
 11 12  1  6
 12 13  1  0
 13 14  2  0
 14 15  1  0
 15 16  2  0
 16 17  1  0
 17 18  2  0
 15 19  1  0
 19 20  1  0
 20 21  1  0
 21 22  1  0
 22 23  1  0
 23 24  1  0
 24 25  1  0
 25 26  2  0
 26 27  1  0
 27 28  2  0
 28 29  1  0
 29 30  2  0
 29 31  1  0
 31 32  2  0
 31 33  1  0
 27 34  1  0
 34 35  2  0
 34 36  1  0
 36 37  1  0
 36 38  1  0
  5 39  2  0
 39 40  1  0
 40 41  2  0
 18 13  1  0
 30 25  1  0
 33 11  1  0
 41  3  1  0
M  END
$$$$
