
     RDKit          3D

 41 44  0  0  0  0  0  0  0  0999 V2000
  -23.2686  -37.6130   -4.8591 C   0  0  0  0  0  0  0  0  0  0  0  0
  -23.3222  -38.8297   -5.7265 C   0  0  0  0  0  0  0  0  0  0  0  0
  -22.5144  -39.9440   -5.1588 C   0  0  0  0  0  0  0  0  0  0  0  0
  -21.1795  -39.7513   -4.7966 C   0  0  0  0  0  0  0  0  0  0  0  0
  -20.4429  -40.7892   -4.2707 C   0  0  0  0  0  0  0  0  0  0  0  0
  -19.0276  -40.5262   -3.9014 C   0  0  0  0  0  0  0  0  0  0  0  0
  -18.3511  -39.7303   -4.8716 N   0  0  0  0  0  0  0  0  0  0  0  0
  -17.1329  -40.3039   -5.4023 C   0  0  0  0  0  0  0  0  0  0  0  0
  -16.5190  -39.3368   -6.3322 C   0  0  1  0  0  0  0  0  0  0  0  0
  -15.1371  -39.2945   -6.3421 O   0  0  0  0  0  0  0  0  0  0  0  0
  -16.9265  -39.4828   -7.7974 C   0  0  2  0  0  0  0  0  0  0  0  0
  -15.8566  -38.9145   -8.7057 C   0  0  0  0  0  0  0  0  0  0  0  0
  -16.3711  -37.8403   -9.6307 C   0  0  0  0  0  0  0  0  0  0  0  0
  -17.1259  -37.9530  -10.7607 C   0  0  0  0  0  0  0  0  0  0  0  0
  -17.4664  -36.7774  -11.4258 C   0  0  0  0  0  0  0  0  0  0  0  0
  -17.0333  -35.5277  -10.9243 C   0  0  0  0  0  0  0  0  0  0  0  0
  -16.2742  -35.3958   -9.7894 C   0  0  0  0  0  0  0  0  0  0  0  0
  -15.9570  -36.5690   -9.1619 C   0  0  0  0  0  0  0  0  0  0  0  0
  -18.2105  -36.6098  -12.5750 O   0  0  0  0  0  0  0  0  0  0  0  0
  -18.2336  -37.0759  -13.8678 C   0  0  0  0  0  0  0  0  0  0  0  0
  -19.5567  -37.6707  -14.2839 C   0  0  0  0  0  0  0  0  0  0  0  0
  -19.5166  -39.1671  -13.9718 C   0  0  0  0  0  0  0  0  0  0  0  0
  -20.9277  -39.6610  -13.8730 C   0  0  0  0  0  0  0  0  0  0  0  0
  -21.2692  -40.1780  -12.6798 O   0  0  0  0  0  0  0  0  0  0  0  0
  -20.9788  -40.3180  -11.3556 C   0  0  0  0  0  0  0  0  0  0  0  0
  -21.5041  -41.5414  -10.8724 C   0  0  0  0  0  0  0  0  0  0  0  0
  -21.3749  -41.9614   -9.5771 C   0  0  0  0  0  0  0  0  0  0  0  0
  -20.6893  -41.1021   -8.7601 C   0  0  0  0  0  0  0  0  0  0  0  0
  -20.1411  -39.8680   -9.1861 C   0  0  0  0  0  0  0  0  0  0  0  0
  -20.2920  -39.4829  -10.4881 C   0  0  0  0  0  0  0  0  0  0  0  0
  -19.4777  -39.2064   -8.0356 C   0  0  0  0  0  0  0  0  0  0  0  0
  -20.2083  -39.0360   -6.9386 O   0  0  0  0  0  0  0  0  0  0  0  0
  -18.1787  -38.7055   -7.8656 N   0  0  0  0  0  0  0  0  0  0  0  0
  -21.9206  -43.2236   -9.0945 C   0  0  0  0  0  0  0  0  0  0  0  0
  -21.2858  -44.2606   -9.4034 O   0  0  0  0  0  0  0  0  0  0  0  0
  -23.0907  -43.3446   -8.3196 N   0  0  0  0  0  0  0  0  0  0  0  0
  -23.2664  -44.4608   -7.4260 C   0  0  0  0  0  0  0  0  0  0  0  0
  -24.1212  -42.3459   -8.4238 C   0  0  0  0  0  0  0  0  0  0  0  0
  -21.0358  -41.9680   -4.1205 N   0  0  0  0  0  0  0  0  0  0  0  0
  -22.3143  -42.1613   -4.4653 C   0  0  0  0  0  0  0  0  0  0  0  0
  -23.0346  -41.1557   -4.9765 N   0  0  0  0  0  0  0  0  0  0  0  0
  1  2  1  0
  2  3  1  0
  3  4  2  0
  4  5  1  0
  5  6  1  0
  6  7  1  0
  7  8  1  0
  8  9  1  0
  9 10  1  6
  9 11  1  0
 11 12  1  6
 12 13  1  0
 13 14  2  0
 14 15  1  0
 15 16  2  0
 16 17  1  0
 17 18  2  0
 15 19  1  0
 19 20  1  0
 20 21  1  0
 21 22  1  0
 22 23  1  0
 23 24  1  0
 24 25  1  0
 25 26  2  0
 26 27  1  0
 27 28  2  0
 28 29  1  0
 29 30  2  0
 29 31  1  0
 31 32  2  0
 31 33  1  0
 27 34  1  0
 34 35  2  0
 34 36  1  0
 36 37  1  0
 36 38  1  0
  5 39  2  0
 39 40  1  0
 40 41  2  0
 18 13  1  0
 30 25  1  0
 33 11  1  0
 41  3  1  0
M  END
$$$$
