
     RDKit          3D

 41 44  0  0  0  0  0  0  0  0999 V2000
  -24.1270  -40.8442   -5.0723 C   0  0  0  0  0  0  0  0  0  0  0  0
  -23.3776  -39.6907   -4.4862 C   0  0  0  0  0  0  0  0  0  0  0  0
  -22.1260  -39.4091   -5.2415 C   0  0  0  0  0  0  0  0  0  0  0  0
  -20.8914  -39.3547   -4.5910 C   0  0  0  0  0  0  0  0  0  0  0  0
  -19.7401  -39.0952   -5.3007 C   0  0  0  0  0  0  0  0  0  0  0  0
  -18.4543  -39.0509   -4.5568 C   0  0  0  0  0  0  0  0  0  0  0  0
  -17.7756  -40.3046   -4.5687 N   0  0  0  0  0  0  0  0  0  0  0  0
  -16.6292  -40.3794   -5.4491 C   0  0  0  0  0  0  0  0  0  0  0  0
  -16.6410  -39.2065   -6.3441 C   0  0  1  0  0  0  0  0  0  0  0  0
  -15.5498  -38.3622   -6.2558 O   0  0  0  0  0  0  0  0  0  0  0  0
  -16.7896  -39.5160   -7.8327 C   0  0  2  0  0  0  0  0  0  0  0  0
  -15.8759  -38.6302   -8.6534 C   0  0  0  0  0  0  0  0  0  0  0  0
  -16.6091  -37.8219   -9.6942 C   0  0  0  0  0  0  0  0  0  0  0  0
  -17.1339  -38.2140  -10.8901 C   0  0  0  0  0  0  0  0  0  0  0  0
  -17.7718  -37.2445  -11.6604 C   0  0  0  0  0  0  0  0  0  0  0  0
  -17.8589  -35.9120  -11.1942 C   0  0  0  0  0  0  0  0  0  0  0  0
  -17.3373  -35.5003   -9.9942 C   0  0  0  0  0  0  0  0  0  0  0  0
  -16.7172  -36.4764   -9.2637 C   0  0  0  0  0  0  0  0  0  0  0  0
  -18.3804  -37.3705  -12.8918 O   0  0  0  0  0  0  0  0  0  0  0  0
  -18.0824  -37.8428  -14.1478 C   0  0  0  0  0  0  0  0  0  0  0  0
  -19.0593  -38.8693  -14.6669 C   0  0  0  0  0  0  0  0  0  0  0  0
  -18.5474  -40.2514  -14.2593 C   0  0  0  0  0  0  0  0  0  0  0  0
  -19.7044  -41.2032  -14.2834 C   0  0  0  0  0  0  0  0  0  0  0  0
  -19.9925  -41.7814  -13.1043 O   0  0  0  0  0  0  0  0  0  0  0  0
  -19.8375  -41.7835  -11.7503 C   0  0  0  0  0  0  0  0  0  0  0  0
  -19.9669  -43.1028  -11.2513 C   0  0  0  0  0  0  0  0  0  0  0  0
  -19.8625  -43.4242   -9.9259 C   0  0  0  0  0  0  0  0  0  0  0  0
  -19.6196  -42.3631   -9.0948 C   0  0  0  0  0  0  0  0  0  0  0  0
  -19.4796  -41.0246   -9.5351 C   0  0  0  0  0  0  0  0  0  0  0  0
  -19.5913  -40.7436  -10.8674 C   0  0  0  0  0  0  0  0  0  0  0  0
  -19.2307  -40.1495   -8.3631 C   0  0  0  0  0  0  0  0  0  0  0  0
  -20.1049  -40.2208   -7.3648 O   0  0  0  0  0  0  0  0  0  0  0  0
  -18.2137  -39.2244   -8.0849 N   0  0  0  0  0  0  0  0  0  0  0  0
  -19.9976  -44.7869   -9.4273 C   0  0  0  0  0  0  0  0  0  0  0  0
  -21.1481  -45.2853   -9.4699 O   0  0  0  0  0  0  0  0  0  0  0  0
  -18.9375  -45.5590   -8.9133 N   0  0  0  0  0  0  0  0  0  0  0  0
  -19.0075  -46.9979   -8.9202 C   0  0  0  0  0  0  0  0  0  0  0  0
  -17.7753  -44.9046   -8.3737 C   0  0  0  0  0  0  0  0  0  0  0  0
  -19.8397  -38.8998   -6.6105 N   0  0  0  0  0  0  0  0  0  0  0  0
  -21.0186  -38.9500   -7.2416 C   0  0  0  0  0  0  0  0  0  0  0  0
  -22.1403  -39.2021   -6.5565 N   0  0  0  0  0  0  0  0  0  0  0  0
  1  2  1  0
  2  3  1  0
  3  4  2  0
  4  5  1  0
  5  6  1  0
  6  7  1  0
  7  8  1  0
  8  9  1  0
  9 10  1  6
  9 11  1  0
 11 12  1  6
 12 13  1  0
 13 14  2  0
 14 15  1  0
 15 16  2  0
 16 17  1  0
 17 18  2  0
 15 19  1  0
 19 20  1  0
 20 21  1  0
 21 22  1  0
 22 23  1  0
 23 24  1  0
 24 25  1  0
 25 26  2  0
 26 27  1  0
 27 28  2  0
 28 29  1  0
 29 30  2  0
 29 31  1  0
 31 32  2  0
 31 33  1  0
 27 34  1  0
 34 35  2  0
 34 36  1  0
 36 37  1  0
 36 38  1  0
  5 39  2  0
 39 40  1  0
 40 41  2  0
 18 13  1  0
 30 25  1  0
 33 11  1  0
 41  3  1  0
M  END
$$$$
