
     RDKit          3D

 41 44  0  0  0  0  0  0  0  0999 V2000
  -12.9152  -36.3382  -12.3900 C   0  0  0  0  0  0  0  0  0  0  0  0
  -13.5811  -37.6615  -12.5929 C   0  0  0  0  0  0  0  0  0  0  0  0
  -12.8110  -38.7662  -11.9580 C   0  0  0  0  0  0  0  0  0  0  0  0
  -13.3242  -39.4609  -10.8606 C   0  0  0  0  0  0  0  0  0  0  0  0
  -12.6033  -40.4823  -10.2829 C   0  0  0  0  0  0  0  0  0  0  0  0
  -13.1992  -41.1880   -9.1187 C   0  0  0  0  0  0  0  0  0  0  0  0
  -14.4528  -40.6321   -8.7289 N   0  0  0  0  0  0  0  0  0  0  0  0
  -15.5996  -41.1105   -9.4711 C   0  0  0  0  0  0  0  0  0  0  0  0
  -16.5428  -39.9917   -9.6599 C   0  0  1  0  0  0  0  0  0  0  0  0
  -16.5413  -39.3981  -10.9085 O   0  0  0  0  0  0  0  0  0  0  0  0
  -18.0084  -40.3102   -9.3688 C   0  0  2  0  0  0  0  0  0  0  0  0
  -18.8909  -39.1369   -9.7392 C   0  0  0  0  0  0  0  0  0  0  0  0
  -19.7316  -38.6393   -8.5904 C   0  0  0  0  0  0  0  0  0  0  0  0
  -20.8554  -39.1779   -8.0370 C   0  0  0  0  0  0  0  0  0  0  0  0
  -21.4324  -38.4998   -6.9658 C   0  0  0  0  0  0  0  0  0  0  0  0
  -20.8521  -37.3010   -6.4896 C   0  0  0  0  0  0  0  0  0  0  0  0
  -19.7222  -36.7454   -7.0338 C   0  0  0  0  0  0  0  0  0  0  0  0
  -19.1821  -37.4356   -8.0839 C   0  0  0  0  0  0  0  0  0  0  0  0
  -22.5561  -38.8216   -6.2335 O   0  0  0  0  0  0  0  0  0  0  0  0
  -23.8777  -39.1304   -6.4514 C   0  0  0  0  0  0  0  0  0  0  0  0
  -24.3143  -40.4363   -5.8338 C   0  0  0  0  0  0  0  0  0  0  0  0
  -24.1072  -41.5385   -6.8733 C   0  0  0  0  0  0  0  0  0  0  0  0
  -24.0219  -42.8494   -6.1525 C   0  0  0  0  0  0  0  0  0  0  0  0
  -22.8625  -43.5120   -6.3082 O   0  0  0  0  0  0  0  0  0  0  0  0
  -21.5556  -43.4786   -6.6934 C   0  0  0  0  0  0  0  0  0  0  0  0
  -21.1506  -44.7605   -7.1395 C   0  0  0  0  0  0  0  0  0  0  0  0
  -19.8894  -45.0420   -7.5882 C   0  0  0  0  0  0  0  0  0  0  0  0
  -19.0252  -43.9796   -7.5773 C   0  0  0  0  0  0  0  0  0  0  0  0
  -19.3727  -42.6769   -7.1445 C   0  0  0  0  0  0  0  0  0  0  0  0
  -20.6426  -42.4356   -6.7023 C   0  0  0  0  0  0  0  0  0  0  0  0
  -18.1891  -41.7907   -7.2670 C   0  0  0  0  0  0  0  0  0  0  0  0
  -17.0723  -42.1954   -6.6711 O   0  0  0  0  0  0  0  0  0  0  0  0
  -18.0041  -40.5604   -7.9148 N   0  0  0  0  0  0  0  0  0  0  0  0
  -19.4874  -46.3663   -8.0447 C   0  0  0  0  0  0  0  0  0  0  0  0
  -19.9007  -46.7159   -9.1764 O   0  0  0  0  0  0  0  0  0  0  0  0
  -18.6807  -47.2553   -7.3077 N   0  0  0  0  0  0  0  0  0  0  0  0
  -18.4686  -48.6046   -7.7656 C   0  0  0  0  0  0  0  0  0  0  0  0
  -18.0653  -46.8127   -6.0848 C   0  0  0  0  0  0  0  0  0  0  0  0
  -11.4162  -40.7827  -10.7968 N   0  0  0  0  0  0  0  0  0  0  0  0
  -10.9171  -40.1219  -11.8479 C   0  0  0  0  0  0  0  0  0  0  0  0
  -11.6138  -39.1287  -12.4132 N   0  0  0  0  0  0  0  0  0  0  0  0
  1  2  1  0
  2  3  1  0
  3  4  2  0
  4  5  1  0
  5  6  1  0
  6  7  1  0
  7  8  1  0
  8  9  1  0
  9 10  1  6
  9 11  1  0
 11 12  1  1
 12 13  1  0
 13 14  2  0
 14 15  1  0
 15 16  2  0
 16 17  1  0
 17 18  2  0
 15 19  1  0
 19 20  1  0
 20 21  1  0
 21 22  1  0
 22 23  1  0
 23 24  1  0
 24 25  1  0
 25 26  2  0
 26 27  1  0
 27 28  2  0
 28 29  1  0
 29 30  2  0
 29 31  1  0
 31 32  2  0
 31 33  1  0
 27 34  1  0
 34 35  2  0
 34 36  1  0
 36 37  1  0
 36 38  1  0
  5 39  2  0
 39 40  1  0
 40 41  2  0
 18 13  1  0
 30 25  1  0
 33 11  1  0
 41  3  1  0
M  END
$$$$
