
     RDKit          3D

 41 44  0  0  0  0  0  0  0  0999 V2000
  -14.3586  -41.5396  -14.6145 C   0  0  0  0  0  0  0  0  0  0  0  0
  -13.7346  -42.3145  -13.4983 C   0  0  0  0  0  0  0  0  0  0  0  0
  -13.0055  -41.4246  -12.5534 C   0  0  0  0  0  0  0  0  0  0  0  0
  -13.4688  -41.2266  -11.2509 C   0  0  0  0  0  0  0  0  0  0  0  0
  -12.7847  -40.4024  -10.3853 C   0  0  0  0  0  0  0  0  0  0  0  0
  -13.3227  -40.2301   -9.0107 C   0  0  0  0  0  0  0  0  0  0  0  0
  -14.2315  -39.1358   -8.9154 N   0  0  0  0  0  0  0  0  0  0  0  0
  -15.5568  -39.3843   -9.4413 C   0  0  0  0  0  0  0  0  0  0  0  0
  -16.5527  -38.9266   -8.4535 C   0  0  1  0  0  0  0  0  0  0  0  0
  -16.8170  -37.5697   -8.4391 O   0  0  0  0  0  0  0  0  0  0  0  0
  -17.9209  -39.6012   -8.5373 C   0  0  2  0  0  0  0  0  0  0  0  0
  -19.0197  -38.5639   -8.6345 C   0  0  0  0  0  0  0  0  0  0  0  0
  -20.0538  -38.6892   -7.5441 C   0  0  0  0  0  0  0  0  0  0  0  0
  -21.0628  -39.5954   -7.4015 C   0  0  0  0  0  0  0  0  0  0  0  0
  -21.8776  -39.4779   -6.2779 C   0  0  0  0  0  0  0  0  0  0  0  0
  -21.6433  -38.4491   -5.3360 C   0  0  0  0  0  0  0  0  0  0  0  0
  -20.6333  -37.5297   -5.4634 C   0  0  0  0  0  0  0  0  0  0  0  0
  -19.8531  -37.6728   -6.5776 C   0  0  0  0  0  0  0  0  0  0  0  0
  -22.9539  -40.2516   -5.8966 O   0  0  0  0  0  0  0  0  0  0  0  0
  -24.1396  -40.7041   -6.4246 C   0  0  0  0  0  0  0  0  0  0  0  0
  -24.3075  -42.2027   -6.3649 C   0  0  0  0  0  0  0  0  0  0  0  0
  -23.7527  -42.7885   -7.6638 C   0  0  0  0  0  0  0  0  0  0  0  0
  -23.4239  -44.2303   -7.4223 C   0  0  0  0  0  0  0  0  0  0  0  0
  -22.1312  -44.5574   -7.5944 O   0  0  0  0  0  0  0  0  0  0  0  0
  -20.8404  -44.1385   -7.7202 C   0  0  0  0  0  0  0  0  0  0  0  0
  -20.1047  -45.0672   -8.4964 C   0  0  0  0  0  0  0  0  0  0  0  0
  -18.7778  -44.9207   -8.7947 C   0  0  0  0  0  0  0  0  0  0  0  0
  -18.1947  -43.7925   -8.2820 C   0  0  0  0  0  0  0  0  0  0  0  0
  -18.8786  -42.8292   -7.5014 C   0  0  0  0  0  0  0  0  0  0  0  0
  -20.2038  -43.0115   -7.2242 C   0  0  0  0  0  0  0  0  0  0  0  0
  -17.9329  -41.7522   -7.1179 C   0  0  0  0  0  0  0  0  0  0  0  0
  -16.8099  -42.1269   -6.5140 O   0  0  0  0  0  0  0  0  0  0  0  0
  -17.9877  -40.3593   -7.2734 N   0  0  0  0  0  0  0  0  0  0  0  0
  -18.0339  -45.8848   -9.5953 C   0  0  0  0  0  0  0  0  0  0  0  0
  -18.4001  -46.0210  -10.7875 O   0  0  0  0  0  0  0  0  0  0  0  0
  -16.9534  -46.6538   -9.1208 N   0  0  0  0  0  0  0  0  0  0  0  0
  -16.3105  -47.6205   -9.9738 C   0  0  0  0  0  0  0  0  0  0  0  0
  -16.4894  -46.4745   -7.7707 C   0  0  0  0  0  0  0  0  0  0  0  0
  -11.6814  -39.8073  -10.8237 N   0  0  0  0  0  0  0  0  0  0  0  0
  -11.2308  -39.9914  -12.0701 C   0  0  0  0  0  0  0  0  0  0  0  0
  -11.8917  -40.7916  -12.9152 N   0  0  0  0  0  0  0  0  0  0  0  0
  1  2  1  0
  2  3  1  0
  3  4  2  0
  4  5  1  0
  5  6  1  0
  6  7  1  0
  7  8  1  0
  8  9  1  0
  9 10  1  6
  9 11  1  0
 11 12  1  1
 12 13  1  0
 13 14  2  0
 14 15  1  0
 15 16  2  0
 16 17  1  0
 17 18  2  0
 15 19  1  0
 19 20  1  0
 20 21  1  0
 21 22  1  0
 22 23  1  0
 23 24  1  0
 24 25  1  0
 25 26  2  0
 26 27  1  0
 27 28  2  0
 28 29  1  0
 29 30  2  0
 29 31  1  0
 31 32  2  0
 31 33  1  0
 27 34  1  0
 34 35  2  0
 34 36  1  0
 36 37  1  0
 36 38  1  0
  5 39  2  0
 39 40  1  0
 40 41  2  0
 18 13  1  0
 30 25  1  0
 33 11  1  0
 41  3  1  0
M  END
$$$$
