
     RDKit          3D

 41 44  0  0  0  0  0  0  0  0999 V2000
  -20.8387  -39.7808   -0.6534 C   0  0  0  0  0  0  0  0  0  0  0  0
  -20.2858  -40.9821   -1.3511 C   0  0  0  0  0  0  0  0  0  0  0  0
  -20.9030  -41.1696   -2.6929 C   0  0  0  0  0  0  0  0  0  0  0  0
  -20.4815  -40.4140   -3.7892 C   0  0  0  0  0  0  0  0  0  0  0  0
  -21.0588  -40.5977   -5.0259 C   0  0  0  0  0  0  0  0  0  0  0  0
  -20.5695  -39.7671   -6.1570 C   0  0  0  0  0  0  0  0  0  0  0  0
  -19.6598  -38.7540   -5.7342 N   0  0  0  0  0  0  0  0  0  0  0  0
  -19.1647  -37.8894   -6.7841 C   0  0  0  0  0  0  0  0  0  0  0  0
  -17.6898  -37.9240   -6.7711 C   0  0  1  0  0  0  0  0  0  0  0  0
  -17.0930  -37.9857   -5.5256 O   0  0  0  0  0  0  0  0  0  0  0  0
  -17.0507  -39.0525   -7.5787 C   0  0  2  0  0  0  0  0  0  0  0  0
  -15.5406  -38.9592   -7.5194 C   0  0  0  0  0  0  0  0  0  0  0  0
  -14.8967  -38.8688   -8.8800 C   0  0  0  0  0  0  0  0  0  0  0  0
  -14.6974  -39.8411   -9.8150 C   0  0  0  0  0  0  0  0  0  0  0  0
  -14.0724  -39.4710  -11.0036 C   0  0  0  0  0  0  0  0  0  0  0  0
  -13.6718  -38.1298  -11.2068 C   0  0  0  0  0  0  0  0  0  0  0  0
  -13.8646  -37.1392  -10.2777 C   0  0  0  0  0  0  0  0  0  0  0  0
  -14.4796  -37.5365   -9.1224 C   0  0  0  0  0  0  0  0  0  0  0  0
  -13.7543  -40.2458  -12.0995 O   0  0  0  0  0  0  0  0  0  0  0  0
  -13.0853  -41.4132  -12.3802 C   0  0  0  0  0  0  0  0  0  0  0  0
  -13.9039  -42.4220  -13.1482 C   0  0  0  0  0  0  0  0  0  0  0  0
  -14.6105  -43.3219  -12.1338 C   0  0  0  0  0  0  0  0  0  0  0  0
  -15.7902  -43.9510  -12.8104 C   0  0  0  0  0  0  0  0  0  0  0  0
  -16.9839  -43.6578  -12.2656 O   0  0  0  0  0  0  0  0  0  0  0  0
  -17.7093  -42.8568  -11.4351 C   0  0  0  0  0  0  0  0  0  0  0  0
  -18.8087  -43.5775  -10.9077 C   0  0  0  0  0  0  0  0  0  0  0  0
  -19.7215  -43.0391  -10.0428 C   0  0  0  0  0  0  0  0  0  0  0  0
  -19.4978  -41.7287   -9.7136 C   0  0  0  0  0  0  0  0  0  0  0  0
  -18.4169  -40.9587  -10.2074 C   0  0  0  0  0  0  0  0  0  0  0  0
  -17.5265  -41.5321  -11.0703 C   0  0  0  0  0  0  0  0  0  0  0  0
  -18.4968  -39.5887   -9.6434 C   0  0  0  0  0  0  0  0  0  0  0  0
  -19.6438  -38.9381   -9.8081 O   0  0  0  0  0  0  0  0  0  0  0  0
  -17.5658  -38.8104   -8.9398 N   0  0  0  0  0  0  0  0  0  0  0  0
  -20.8478  -43.7935   -9.5079 C   0  0  0  0  0  0  0  0  0  0  0  0
  -21.8014  -44.0061  -10.2949 O   0  0  0  0  0  0  0  0  0  0  0  0
  -20.9265  -44.2867   -8.1908 N   0  0  0  0  0  0  0  0  0  0  0  0
  -19.8716  -44.0248   -7.2453 C   0  0  0  0  0  0  0  0  0  0  0  0
  -22.0694  -45.0617   -7.7868 C   0  0  0  0  0  0  0  0  0  0  0  0
  -22.0197  -41.5069   -5.1423 N   0  0  0  0  0  0  0  0  0  0  0  0
  -22.4296  -42.2349   -4.0971 C   0  0  0  0  0  0  0  0  0  0  0  0
  -21.8716  -42.0604   -2.8931 N   0  0  0  0  0  0  0  0  0  0  0  0
  1  2  1  0
  2  3  1  0
  3  4  2  0
  4  5  1  0
  5  6  1  0
  6  7  1  0
  7  8  1  0
  8  9  1  0
  9 10  1  1
  9 11  1  0
 11 12  1  6
 12 13  1  0
 13 14  2  0
 14 15  1  0
 15 16  2  0
 16 17  1  0
 17 18  2  0
 15 19  1  0
 19 20  1  0
 20 21  1  0
 21 22  1  0
 22 23  1  0
 23 24  1  0
 24 25  1  0
 25 26  2  0
 26 27  1  0
 27 28  2  0
 28 29  1  0
 29 30  2  0
 29 31  1  0
 31 32  2  0
 31 33  1  0
 27 34  1  0
 34 35  2  0
 34 36  1  0
 36 37  1  0
 36 38  1  0
  5 39  2  0
 39 40  1  0
 40 41  2  0
 18 13  1  0
 30 25  1  0
 33 11  1  0
 41  3  1  0
M  END
$$$$
