
     RDKit          3D

 41 44  0  0  0  0  0  0  0  0999 V2000
  -24.4984  -39.4621   -3.9914 C   0  0  0  0  0  0  0  0  0  0  0  0
  -23.3772  -39.3648   -4.9757 C   0  0  0  0  0  0  0  0  0  0  0  0
  -22.0939  -39.8464   -4.3947 C   0  0  0  0  0  0  0  0  0  0  0  0
  -20.9412  -39.9393   -5.1776 C   0  0  0  0  0  0  0  0  0  0  0  0
  -19.7594  -40.3845   -4.6284 C   0  0  0  0  0  0  0  0  0  0  0  0
  -18.5640  -40.4613   -5.5081 C   0  0  0  0  0  0  0  0  0  0  0  0
  -17.8934  -39.2087   -5.6252 N   0  0  0  0  0  0  0  0  0  0  0  0
  -16.4486  -39.2820   -5.6707 C   0  0  0  0  0  0  0  0  0  0  0  0
  -15.9585  -38.3489   -6.7032 C   0  0  1  0  0  0  0  0  0  0  0  0
  -14.5948  -38.1219   -6.7210 O   0  0  0  0  0  0  0  0  0  0  0  0
  -16.3242  -38.7085   -8.1423 C   0  0  2  0  0  0  0  0  0  0  0  0
  -15.1897  -38.3588   -9.0821 C   0  0  0  0  0  0  0  0  0  0  0  0
  -15.6024  -37.4223  -10.1898 C   0  0  0  0  0  0  0  0  0  0  0  0
  -16.3239  -37.6743  -11.3191 C   0  0  0  0  0  0  0  0  0  0  0  0
  -16.5654  -36.6055  -12.1790 C   0  0  0  0  0  0  0  0  0  0  0  0
  -16.0706  -35.3178  -11.8666 C   0  0  0  0  0  0  0  0  0  0  0  0
  -15.3437  -35.0463  -10.7354 C   0  0  0  0  0  0  0  0  0  0  0  0
  -15.1240  -36.1175   -9.9138 C   0  0  0  0  0  0  0  0  0  0  0  0
  -17.2575  -36.5852  -13.3719 O   0  0  0  0  0  0  0  0  0  0  0  0
  -17.2663  -37.2541  -14.5726 C   0  0  0  0  0  0  0  0  0  0  0  0
  -18.6098  -37.8316  -14.9455 C   0  0  0  0  0  0  0  0  0  0  0  0
  -18.6763  -39.2568  -14.3952 C   0  0  0  0  0  0  0  0  0  0  0  0
  -20.1188  -39.6457  -14.2805 C   0  0  0  0  0  0  0  0  0  0  0  0
  -20.5332  -39.9403  -13.0359 O   0  0  0  0  0  0  0  0  0  0  0  0
  -20.2977  -39.8786  -11.6949 C   0  0  0  0  0  0  0  0  0  0  0  0
  -20.9165  -40.9743  -11.0448 C   0  0  0  0  0  0  0  0  0  0  0  0
  -20.8588  -41.1838   -9.6944 C   0  0  0  0  0  0  0  0  0  0  0  0
  -20.1479  -40.2436   -8.9969 C   0  0  0  0  0  0  0  0  0  0  0  0
  -19.5076  -39.1293   -9.5913 C   0  0  0  0  0  0  0  0  0  0  0  0
  -19.5889  -38.9541  -10.9437 C   0  0  0  0  0  0  0  0  0  0  0  0
  -18.8429  -38.3281   -8.5341 C   0  0  0  0  0  0  0  0  0  0  0  0
  -19.5981  -37.9390   -7.5122 O   0  0  0  0  0  0  0  0  0  0  0  0
  -17.5210  -37.8819   -8.3899 N   0  0  0  0  0  0  0  0  0  0  0  0
  -21.5004  -42.3166   -9.0395 C   0  0  0  0  0  0  0  0  0  0  0  0
  -22.7549  -42.3160   -9.0254 O   0  0  0  0  0  0  0  0  0  0  0  0
  -20.8113  -43.3869   -8.4364 N   0  0  0  0  0  0  0  0  0  0  0  0
  -21.5320  -44.5083   -7.8899 C   0  0  0  0  0  0  0  0  0  0  0  0
  -19.3747  -43.3587   -8.3627 C   0  0  0  0  0  0  0  0  0  0  0  0
  -19.7502  -40.7197   -3.3434 N   0  0  0  0  0  0  0  0  0  0  0  0
  -20.8502  -40.6339   -2.5863 C   0  0  0  0  0  0  0  0  0  0  0  0
  -22.0012  -40.2016   -3.1151 N   0  0  0  0  0  0  0  0  0  0  0  0
  1  2  1  0
  2  3  1  0
  3  4  2  0
  4  5  1  0
  5  6  1  0
  6  7  1  0
  7  8  1  0
  8  9  1  0
  9 10  1  6
  9 11  1  0
 11 12  1  6
 12 13  1  0
 13 14  2  0
 14 15  1  0
 15 16  2  0
 16 17  1  0
 17 18  2  0
 15 19  1  0
 19 20  1  0
 20 21  1  0
 21 22  1  0
 22 23  1  0
 23 24  1  0
 24 25  1  0
 25 26  2  0
 26 27  1  0
 27 28  2  0
 28 29  1  0
 29 30  2  0
 29 31  1  0
 31 32  2  0
 31 33  1  0
 27 34  1  0
 34 35  2  0
 34 36  1  0
 36 37  1  0
 36 38  1  0
  5 39  2  0
 39 40  1  0
 40 41  2  0
 18 13  1  0
 30 25  1  0
 33 11  1  0
 41  3  1  0
M  END
$$$$
