
     RDKit          3D

 41 44  0  0  0  0  0  0  0  0999 V2000
  -22.7022  -42.0573   -3.7159 C   0  0  0  0  0  0  0  0  0  0  0  0
  -22.6051  -40.5999   -3.3964 C   0  0  0  0  0  0  0  0  0  0  0  0
  -21.6895  -39.8927   -4.3335 C   0  0  0  0  0  0  0  0  0  0  0  0
  -20.3038  -40.0217   -4.2178 C   0  0  0  0  0  0  0  0  0  0  0  0
  -19.4669  -39.3641   -5.0917 C   0  0  0  0  0  0  0  0  0  0  0  0
  -18.0009  -39.5393   -4.9226 C   0  0  0  0  0  0  0  0  0  0  0  0
  -17.5193  -40.7267   -5.5476 N   0  0  0  0  0  0  0  0  0  0  0  0
  -16.2479  -40.5967   -6.2269 C   0  0  0  0  0  0  0  0  0  0  0  0
  -16.3185  -39.4475   -7.1497 C   0  0  1  0  0  0  0  0  0  0  0  0
  -15.1727  -38.6814   -7.2569 O   0  0  0  0  0  0  0  0  0  0  0  0
  -16.7143  -39.7809   -8.5871 C   0  0  2  0  0  0  0  0  0  0  0  0
  -15.9550  -38.9075   -9.5635 C   0  0  0  0  0  0  0  0  0  0  0  0
  -16.8558  -38.1167  -10.4786 C   0  0  0  0  0  0  0  0  0  0  0  0
  -17.5729  -38.5284  -11.5629 C   0  0  0  0  0  0  0  0  0  0  0  0
  -18.3349  -37.5720  -12.2299 C   0  0  0  0  0  0  0  0  0  0  0  0
  -18.3473  -36.2323  -11.7765 C   0  0  0  0  0  0  0  0  0  0  0  0
  -17.6327  -35.8010  -10.6879 C   0  0  0  0  0  0  0  0  0  0  0  0
  -16.8949  -36.7645  -10.0571 C   0  0  0  0  0  0  0  0  0  0  0  0
  -19.1415  -37.7184  -13.3392 O   0  0  0  0  0  0  0  0  0  0  0  0
  -19.0574  -38.2103  -14.6199 C   0  0  0  0  0  0  0  0  0  0  0  0
  -20.1038  -39.2460  -14.9511 C   0  0  0  0  0  0  0  0  0  0  0  0
  -19.5255  -40.6209  -14.6139 C   0  0  0  0  0  0  0  0  0  0  0  0
  -20.6666  -41.5741  -14.4281 C   0  0  0  0  0  0  0  0  0  0  0  0
  -20.7501  -42.1337  -13.2085 O   0  0  0  0  0  0  0  0  0  0  0  0
  -20.3695  -42.1140  -11.9000 C   0  0  0  0  0  0  0  0  0  0  0  0
  -20.4082  -43.4252  -11.3659 C   0  0  0  0  0  0  0  0  0  0  0  0
  -20.0811  -43.7252  -10.0720 C   0  0  0  0  0  0  0  0  0  0  0  0
  -19.7057  -42.6507   -9.3103 C   0  0  0  0  0  0  0  0  0  0  0  0
  -19.6468  -41.3193   -9.7888 C   0  0  0  0  0  0  0  0  0  0  0  0
  -19.9821  -41.0598  -11.0874 C   0  0  0  0  0  0  0  0  0  0  0  0
  -19.2075  -40.4253   -8.6892 C   0  0  0  0  0  0  0  0  0  0  0  0
  -19.9010  -40.4815   -7.5569 O   0  0  0  0  0  0  0  0  0  0  0  0
  -18.1616  -39.4949   -8.6005 N   0  0  0  0  0  0  0  0  0  0  0  0
  -20.1254  -45.0800   -9.5366 C   0  0  0  0  0  0  0  0  0  0  0  0
  -19.2778  -45.8868   -9.9889 O   0  0  0  0  0  0  0  0  0  0  0  0
  -21.0415  -45.5257   -8.5639 N   0  0  0  0  0  0  0  0  0  0  0  0
  -21.0533  -46.9039   -8.1446 C   0  0  0  0  0  0  0  0  0  0  0  0
  -21.9760  -44.5969   -7.9860 C   0  0  0  0  0  0  0  0  0  0  0  0
  -20.0136  -38.6104   -6.0387 N   0  0  0  0  0  0  0  0  0  0  0  0
  -21.3403  -38.4812   -6.1563 C   0  0  0  0  0  0  0  0  0  0  0  0
  -22.1579  -39.1184   -5.3098 N   0  0  0  0  0  0  0  0  0  0  0  0
  1  2  1  0
  2  3  1  0
  3  4  2  0
  4  5  1  0
  5  6  1  0
  6  7  1  0
  7  8  1  0
  8  9  1  0
  9 10  1  6
  9 11  1  0
 11 12  1  6
 12 13  1  0
 13 14  2  0
 14 15  1  0
 15 16  2  0
 16 17  1  0
 17 18  2  0
 15 19  1  0
 19 20  1  0
 20 21  1  0
 21 22  1  0
 22 23  1  0
 23 24  1  0
 24 25  1  0
 25 26  2  0
 26 27  1  0
 27 28  2  0
 28 29  1  0
 29 30  2  0
 29 31  1  0
 31 32  2  0
 31 33  1  0
 27 34  1  0
 34 35  2  0
 34 36  1  0
 36 37  1  0
 36 38  1  0
  5 39  2  0
 39 40  1  0
 40 41  2  0
 18 13  1  0
 30 25  1  0
 33 11  1  0
 41  3  1  0
M  END
$$$$
