
     RDKit          3D

 41 44  0  0  0  0  0  0  0  0999 V2000
  -13.4187  -33.4440  -11.8908 C   0  0  0  0  0  0  0  0  0  0  0  0
  -14.2535  -34.0904  -10.8321 C   0  0  0  0  0  0  0  0  0  0  0  0
  -14.1770  -35.5754  -10.9039 C   0  0  0  0  0  0  0  0  0  0  0  0
  -15.3340  -36.3567  -10.8667 C   0  0  0  0  0  0  0  0  0  0  0  0
  -15.2506  -37.7296  -10.9356 C   0  0  0  0  0  0  0  0  0  0  0  0
  -16.5144  -38.5104  -10.8935 C   0  0  0  0  0  0  0  0  0  0  0  0
  -17.4464  -37.9864   -9.9504 N   0  0  0  0  0  0  0  0  0  0  0  0
  -16.9200  -37.7572   -8.6219 C   0  0  0  0  0  0  0  0  0  0  0  0
  -15.9366  -38.8127   -8.3125 C   0  0  1  0  0  0  0  0  0  0  0  0
  -14.8589  -38.4320   -7.5348 O   0  0  0  0  0  0  0  0  0  0  0  0
  -16.5010  -40.0595   -7.6335 C   0  0  2  0  0  0  0  0  0  0  0  0
  -15.3804  -40.9308   -7.1065 C   0  0  0  0  0  0  0  0  0  0  0  0
  -15.4172  -42.3382   -7.6471 C   0  0  0  0  0  0  0  0  0  0  0  0
  -16.2396  -43.3753   -7.3194 C   0  0  0  0  0  0  0  0  0  0  0  0
  -16.0515  -44.5812   -7.9906 C   0  0  0  0  0  0  0  0  0  0  0  0
  -15.0392  -44.6967   -8.9717 C   0  0  0  0  0  0  0  0  0  0  0  0
  -14.2035  -43.6642   -9.3141 C   0  0  0  0  0  0  0  0  0  0  0  0
  -14.4144  -42.4953   -8.6357 C   0  0  0  0  0  0  0  0  0  0  0  0
  -16.7352  -45.7713   -7.8537 O   0  0  0  0  0  0  0  0  0  0  0  0
  -17.0953  -46.6470   -6.8574 C   0  0  0  0  0  0  0  0  0  0  0  0
  -18.5754  -46.9349   -6.7965 C   0  0  0  0  0  0  0  0  0  0  0  0
  -19.2108  -45.9229   -5.8423 C   0  0  0  0  0  0  0  0  0  0  0  0
  -20.6727  -45.8369   -6.1594 C   0  0  0  0  0  0  0  0  0  0  0  0
  -21.1023  -44.6230   -6.5462 O   0  0  0  0  0  0  0  0  0  0  0  0
  -20.7878  -43.3753   -6.9954 C   0  0  0  0  0  0  0  0  0  0  0  0
  -21.7762  -42.4493   -6.5810 C   0  0  0  0  0  0  0  0  0  0  0  0
  -21.7372  -41.1155   -6.8819 C   0  0  0  0  0  0  0  0  0  0  0  0
  -20.6559  -40.7259   -7.6266 C   0  0  0  0  0  0  0  0  0  0  0  0
  -19.6369  -41.6045   -8.0681 C   0  0  0  0  0  0  0  0  0  0  0  0
  -19.7120  -42.9304   -7.7478 C   0  0  0  0  0  0  0  0  0  0  0  0
  -18.6362  -40.8367   -8.8494 C   0  0  0  0  0  0  0  0  0  0  0  0
  -19.0953  -40.1112   -9.8637 O   0  0  0  0  0  0  0  0  0  0  0  0
  -17.2442  -40.7164   -8.7256 N   0  0  0  0  0  0  0  0  0  0  0  0
  -22.7618  -40.1744   -6.4479 C   0  0  0  0  0  0  0  0  0  0  0  0
  -22.5867  -39.6357   -5.3285 O   0  0  0  0  0  0  0  0  0  0  0  0
  -23.9094  -39.8416   -7.1939 N   0  0  0  0  0  0  0  0  0  0  0  0
  -24.8453  -38.8629   -6.7025 C   0  0  0  0  0  0  0  0  0  0  0  0
  -24.1507  -40.4873   -8.4569 C   0  0  0  0  0  0  0  0  0  0  0  0
  -14.0473  -38.2821  -11.0374 N   0  0  0  0  0  0  0  0  0  0  0  0
  -12.9338  -37.5408  -11.0735 C   0  0  0  0  0  0  0  0  0  0  0  0
  -13.0094  -36.2062  -11.0071 N   0  0  0  0  0  0  0  0  0  0  0  0
  1  2  1  0
  2  3  1  0
  3  4  2  0
  4  5  1  0
  5  6  1  0
  6  7  1  0
  7  8  1  0
  8  9  1  0
  9 10  1  1
  9 11  1  0
 11 12  1  6
 12 13  1  0
 13 14  2  0
 14 15  1  0
 15 16  2  0
 16 17  1  0
 17 18  2  0
 15 19  1  0
 19 20  1  0
 20 21  1  0
 21 22  1  0
 22 23  1  0
 23 24  1  0
 24 25  1  0
 25 26  2  0
 26 27  1  0
 27 28  2  0
 28 29  1  0
 29 30  2  0
 29 31  1  0
 31 32  2  0
 31 33  1  0
 27 34  1  0
 34 35  2  0
 34 36  1  0
 36 37  1  0
 36 38  1  0
  5 39  2  0
 39 40  1  0
 40 41  2  0
 18 13  1  0
 30 25  1  0
 33 11  1  0
 41  3  1  0
M  END
$$$$
