
     RDKit          3D

 41 44  0  0  0  0  0  0  0  0999 V2000
  -25.0116  -40.5900   -4.2552 C   0  0  0  0  0  0  0  0  0  0  0  0
  -24.3088  -40.8886   -5.5406 C   0  0  0  0  0  0  0  0  0  0  0  0
  -22.8331  -40.9570   -5.3559 C   0  0  0  0  0  0  0  0  0  0  0  0
  -22.0751  -39.7953   -5.1936 C   0  0  0  0  0  0  0  0  0  0  0  0
  -20.7109  -39.8713   -5.0217 C   0  0  0  0  0  0  0  0  0  0  0  0
  -19.9551  -38.6029   -4.8519 C   0  0  0  0  0  0  0  0  0  0  0  0
  -19.6518  -37.9795   -6.0976 N   0  0  0  0  0  0  0  0  0  0  0  0
  -18.9027  -38.7934   -7.0309 C   0  0  0  0  0  0  0  0  0  0  0  0
  -17.4846  -38.3892   -6.9809 C   0  0  1  0  0  0  0  0  0  0  0  0
  -16.9055  -38.3529   -5.7260 O   0  0  0  0  0  0  0  0  0  0  0  0
  -16.5324  -39.2212   -7.8384 C   0  0  2  0  0  0  0  0  0  0  0  0
  -15.2310  -38.4795   -8.0596 C   0  0  0  0  0  0  0  0  0  0  0  0
  -14.8967  -38.2871   -9.5175 C   0  0  0  0  0  0  0  0  0  0  0  0
  -14.4210  -39.1845  -10.4272 C   0  0  0  0  0  0  0  0  0  0  0  0
  -14.2035  -38.7293  -11.7255 C   0  0  0  0  0  0  0  0  0  0  0  0
  -14.4762  -37.3823  -12.0600 C   0  0  0  0  0  0  0  0  0  0  0  0
  -14.9552  -36.4664  -11.1581 C   0  0  0  0  0  0  0  0  0  0  0  0
  -15.1565  -36.9458   -9.8930 C   0  0  0  0  0  0  0  0  0  0  0  0
  -13.7339  -39.4185  -12.8241 O   0  0  0  0  0  0  0  0  0  0  0  0
  -12.6625  -40.2081  -13.1677 C   0  0  0  0  0  0  0  0  0  0  0  0
  -13.0462  -41.5566  -13.7263 C   0  0  0  0  0  0  0  0  0  0  0  0
  -13.1245  -42.5420  -12.5596 C   0  0  0  0  0  0  0  0  0  0  0  0
  -13.9835  -43.6955  -12.9802 C   0  0  0  0  0  0  0  0  0  0  0  0
  -15.0911  -43.8815  -12.2412 O   0  0  0  0  0  0  0  0  0  0  0  0
  -15.9705  -43.3768  -11.3303 C   0  0  0  0  0  0  0  0  0  0  0  0
  -16.5454  -44.4306  -10.5787 C   0  0  0  0  0  0  0  0  0  0  0  0
  -17.4684  -44.2373   -9.5878 C   0  0  0  0  0  0  0  0  0  0  0  0
  -17.8076  -42.9291   -9.3658 C   0  0  0  0  0  0  0  0  0  0  0  0
  -17.2661  -41.8350  -10.0833 C   0  0  0  0  0  0  0  0  0  0  0  0
  -16.3470  -42.0691  -11.0665 C   0  0  0  0  0  0  0  0  0  0  0  0
  -17.8666  -40.5758   -9.5781 C   0  0  0  0  0  0  0  0  0  0  0  0
  -19.1937  -40.5087   -9.5609 O   0  0  0  0  0  0  0  0  0  0  0  0
  -17.2901  -39.3929   -9.0926 N   0  0  0  0  0  0  0  0  0  0  0  0
  -18.0511  -45.3320   -8.8224 C   0  0  0  0  0  0  0  0  0  0  0  0
  -17.2966  -45.8984   -7.9954 O   0  0  0  0  0  0  0  0  0  0  0  0
  -19.3801  -45.7803   -8.9528 N   0  0  0  0  0  0  0  0  0  0  0  0
  -20.2721  -45.1643   -9.9016 C   0  0  0  0  0  0  0  0  0  0  0  0
  -19.8520  -46.8613   -8.1289 C   0  0  0  0  0  0  0  0  0  0  0  0
  -20.1440  -41.0722   -5.0154 N   0  0  0  0  0  0  0  0  0  0  0  0
  -20.8628  -42.1901   -5.1705 C   0  0  0  0  0  0  0  0  0  0  0  0
  -22.1889  -42.1218   -5.3376 N   0  0  0  0  0  0  0  0  0  0  0  0
  1  2  1  0
  2  3  1  0
  3  4  2  0
  4  5  1  0
  5  6  1  0
  6  7  1  0
  7  8  1  0
  8  9  1  0
  9 10  1  1
  9 11  1  0
 11 12  1  6
 12 13  1  0
 13 14  2  0
 14 15  1  0
 15 16  2  0
 16 17  1  0
 17 18  2  0
 15 19  1  0
 19 20  1  0
 20 21  1  0
 21 22  1  0
 22 23  1  0
 23 24  1  0
 24 25  1  0
 25 26  2  0
 26 27  1  0
 27 28  2  0
 28 29  1  0
 29 30  2  0
 29 31  1  0
 31 32  2  0
 31 33  1  0
 27 34  1  0
 34 35  2  0
 34 36  1  0
 36 37  1  0
 36 38  1  0
  5 39  2  0
 39 40  1  0
 40 41  2  0
 18 13  1  0
 30 25  1  0
 33 11  1  0
 41  3  1  0
M  END
$$$$
