
     RDKit          3D

 41 44  0  0  0  0  0  0  0  0999 V2000
  -13.8806  -34.4181  -12.1191 C   0  0  0  0  0  0  0  0  0  0  0  0
  -13.8812  -35.5900  -11.1905 C   0  0  0  0  0  0  0  0  0  0  0  0
  -15.0958  -36.4320  -11.3707 C   0  0  0  0  0  0  0  0  0  0  0  0
  -15.9549  -36.6913  -10.3007 C   0  0  0  0  0  0  0  0  0  0  0  0
  -17.0764  -37.4702  -10.4801 C   0  0  0  0  0  0  0  0  0  0  0  0
  -17.9559  -37.7116   -9.3067 C   0  0  0  0  0  0  0  0  0  0  0  0
  -17.4609  -37.0956   -8.1200 N   0  0  0  0  0  0  0  0  0  0  0  0
  -16.4352  -37.8380   -7.4189 C   0  0  0  0  0  0  0  0  0  0  0  0
  -15.9341  -38.9067   -8.3042 C   0  0  1  0  0  0  0  0  0  0  0  0
  -14.5625  -38.9710   -8.4653 O   0  0  0  0  0  0  0  0  0  0  0  0
  -16.3612  -40.3251   -7.9305 C   0  0  2  0  0  0  0  0  0  0  0  0
  -15.1523  -41.2281   -7.8038 C   0  0  0  0  0  0  0  0  0  0  0  0
  -15.2172  -42.4379   -8.7017 C   0  0  0  0  0  0  0  0  0  0  0  0
  -15.9541  -43.5781   -8.5741 C   0  0  0  0  0  0  0  0  0  0  0  0
  -15.8204  -44.5441   -9.5686 C   0  0  0  0  0  0  0  0  0  0  0  0
  -14.9473  -44.3235  -10.6592 C   0  0  0  0  0  0  0  0  0  0  0  0
  -14.1990  -43.1829  -10.8037 C   0  0  0  0  0  0  0  0  0  0  0  0
  -14.3532  -42.2559   -9.8098 C   0  0  0  0  0  0  0  0  0  0  0  0
  -16.4410  -45.7707   -9.6818 O   0  0  0  0  0  0  0  0  0  0  0  0
  -16.6346  -46.9040   -8.9284 C   0  0  0  0  0  0  0  0  0  0  0  0
  -18.0829  -47.2971   -8.7694 C   0  0  0  0  0  0  0  0  0  0  0  0
  -18.6149  -46.6235   -7.5038 C   0  0  0  0  0  0  0  0  0  0  0  0
  -20.1084  -46.5546   -7.6047 C   0  0  0  0  0  0  0  0  0  0  0  0
  -20.6249  -45.3135   -7.5877 O   0  0  0  0  0  0  0  0  0  0  0  0
  -20.4141  -43.9727   -7.7115 C   0  0  0  0  0  0  0  0  0  0  0  0
  -21.3663  -43.2609   -6.9415 C   0  0  0  0  0  0  0  0  0  0  0  0
  -21.4109  -41.8958   -6.8666 C   0  0  0  0  0  0  0  0  0  0  0  0
  -20.4535  -41.2485   -7.6015 C   0  0  0  0  0  0  0  0  0  0  0  0
  -19.4763  -41.9054   -8.3880 C   0  0  0  0  0  0  0  0  0  0  0  0
  -19.4649  -43.2706   -8.4378 C   0  0  0  0  0  0  0  0  0  0  0  0
  -18.6156  -40.8903   -9.0439 C   0  0  0  0  0  0  0  0  0  0  0  0
  -19.2309  -39.9520   -9.7561 O   0  0  0  0  0  0  0  0  0  0  0  0
  -17.2243  -40.7137   -9.0622 N   0  0  0  0  0  0  0  0  0  0  0  0
  -22.3967  -41.1772   -6.0694 C   0  0  0  0  0  0  0  0  0  0  0  0
  -23.5855  -41.2361   -6.4659 O   0  0  0  0  0  0  0  0  0  0  0  0
  -22.1003  -40.4384   -4.9072 N   0  0  0  0  0  0  0  0  0  0  0  0
  -23.1229  -39.6676   -4.2474 C   0  0  0  0  0  0  0  0  0  0  0  0
  -20.7633  -40.4513   -4.3759 C   0  0  0  0  0  0  0  0  0  0  0  0
  -17.3130  -37.9623  -11.6907 N   0  0  0  0  0  0  0  0  0  0  0  0
  -16.4948  -37.7189  -12.7211 C   0  0  0  0  0  0  0  0  0  0  0  0
  -15.4038  -36.9623  -12.5522 N   0  0  0  0  0  0  0  0  0  0  0  0
  1  2  1  0
  2  3  1  0
  3  4  2  0
  4  5  1  0
  5  6  1  0
  6  7  1  0
  7  8  1  0
  8  9  1  0
  9 10  1  1
  9 11  1  0
 11 12  1  6
 12 13  1  0
 13 14  2  0
 14 15  1  0
 15 16  2  0
 16 17  1  0
 17 18  2  0
 15 19  1  0
 19 20  1  0
 20 21  1  0
 21 22  1  0
 22 23  1  0
 23 24  1  0
 24 25  1  0
 25 26  2  0
 26 27  1  0
 27 28  2  0
 28 29  1  0
 29 30  2  0
 29 31  1  0
 31 32  2  0
 31 33  1  0
 27 34  1  0
 34 35  2  0
 34 36  1  0
 36 37  1  0
 36 38  1  0
  5 39  2  0
 39 40  1  0
 40 41  2  0
 18 13  1  0
 30 25  1  0
 33 11  1  0
 41  3  1  0
M  END
$$$$
