
     RDKit          3D

 41 44  0  0  0  0  0  0  0  0999 V2000
  -13.8201  -32.5897  -10.4113 C   0  0  0  0  0  0  0  0  0  0  0  0
  -15.0596  -33.1878   -9.8268 C   0  0  0  0  0  0  0  0  0  0  0  0
  -15.7959  -34.0097  -10.8262 C   0  0  0  0  0  0  0  0  0  0  0  0
  -15.5176  -35.3692  -10.9830 C   0  0  0  0  0  0  0  0  0  0  0  0
  -16.2067  -36.1196  -11.9096 C   0  0  0  0  0  0  0  0  0  0  0  0
  -15.8701  -37.5620  -12.0320 C   0  0  0  0  0  0  0  0  0  0  0  0
  -15.4461  -38.1286  -10.7943 N   0  0  0  0  0  0  0  0  0  0  0  0
  -16.3818  -39.0467  -10.1811 C   0  0  0  0  0  0  0  0  0  0  0  0
  -15.9161  -39.3576   -8.8161 C   0  0  1  0  0  0  0  0  0  0  0  0
  -15.7078  -38.2746   -7.9823 O   0  0  0  0  0  0  0  0  0  0  0  0
  -16.8034  -40.3126   -8.0194 C   0  0  2  0  0  0  0  0  0  0  0  0
  -16.0747  -40.8149   -6.7909 C   0  0  0  0  0  0  0  0  0  0  0  0
  -15.9850  -42.3189   -6.7263 C   0  0  0  0  0  0  0  0  0  0  0  0
  -16.9431  -43.2350   -6.4066 C   0  0  0  0  0  0  0  0  0  0  0  0
  -16.5804  -44.5796   -6.4325 C   0  0  0  0  0  0  0  0  0  0  0  0
  -15.2616  -44.9521   -6.7826 C   0  0  0  0  0  0  0  0  0  0  0  0
  -14.2857  -44.0443   -7.1073 C   0  0  0  0  0  0  0  0  0  0  0  0
  -14.6748  -42.7336   -7.0710 C   0  0  0  0  0  0  0  0  0  0  0  0
  -17.3443  -45.6943   -6.1560 O   0  0  0  0  0  0  0  0  0  0  0  0
  -18.1524  -46.1695   -5.1508 C   0  0  0  0  0  0  0  0  0  0  0  0
  -19.5384  -46.5553   -5.6062 C   0  0  0  0  0  0  0  0  0  0  0  0
  -20.4388  -45.3282   -5.4583 C   0  0  0  0  0  0  0  0  0  0  0  0
  -21.6223  -45.5066   -6.3598 C   0  0  0  0  0  0  0  0  0  0  0  0
  -21.7594  -44.5695   -7.3140 O   0  0  0  0  0  0  0  0  0  0  0  0
  -21.1945  -43.5526   -8.0242 C   0  0  0  0  0  0  0  0  0  0  0  0
  -22.1943  -42.6387   -8.4380 C   0  0  0  0  0  0  0  0  0  0  0  0
  -21.9345  -41.5139   -9.1717 C   0  0  0  0  0  0  0  0  0  0  0  0
  -20.6150  -41.3255   -9.4868 C   0  0  0  0  0  0  0  0  0  0  0  0
  -19.5727  -42.2026   -9.1005 C   0  0  0  0  0  0  0  0  0  0  0  0
  -19.8727  -43.3165   -8.3687 C   0  0  0  0  0  0  0  0  0  0  0  0
  -18.2830  -41.6861   -9.6213 C   0  0  0  0  0  0  0  0  0  0  0  0
  -18.2196  -41.4353  -10.9248 O   0  0  0  0  0  0  0  0  0  0  0  0
  -17.0665  -41.3952   -8.9865 N   0  0  0  0  0  0  0  0  0  0  0  0
  -22.9741  -40.5822   -9.5899 C   0  0  0  0  0  0  0  0  0  0  0  0
  -24.1079  -41.0727   -9.8090 O   0  0  0  0  0  0  0  0  0  0  0  0
  -22.7855  -39.1965   -9.7580 N   0  0  0  0  0  0  0  0  0  0  0  0
  -21.5249  -38.6792  -10.2256 C   0  0  0  0  0  0  0  0  0  0  0  0
  -23.8607  -38.2889   -9.4572 C   0  0  0  0  0  0  0  0  0  0  0  0
  -17.1350  -35.5158  -12.6426 N   0  0  0  0  0  0  0  0  0  0  0  0
  -17.4076  -34.2136  -12.4989 C   0  0  0  0  0  0  0  0  0  0  0  0
  -16.7410  -33.4800  -11.5996 N   0  0  0  0  0  0  0  0  0  0  0  0
  1  2  1  0
  2  3  1  0
  3  4  2  0
  4  5  1  0
  5  6  1  0
  6  7  1  0
  7  8  1  0
  8  9  1  0
  9 10  1  1
  9 11  1  0
 11 12  1  1
 12 13  1  0
 13 14  2  0
 14 15  1  0
 15 16  2  0
 16 17  1  0
 17 18  2  0
 15 19  1  0
 19 20  1  0
 20 21  1  0
 21 22  1  0
 22 23  1  0
 23 24  1  0
 24 25  1  0
 25 26  2  0
 26 27  1  0
 27 28  2  0
 28 29  1  0
 29 30  2  0
 29 31  1  0
 31 32  2  0
 31 33  1  0
 27 34  1  0
 34 35  2  0
 34 36  1  0
 36 37  1  0
 36 38  1  0
  5 39  2  0
 39 40  1  0
 40 41  2  0
 18 13  1  0
 30 25  1  0
 33 11  1  0
 41  3  1  0
M  END
$$$$
