
     RDKit          3D

 41 44  0  0  0  0  0  0  0  0999 V2000
  -20.9348  -39.5519   -2.2511 C   0  0  0  0  0  0  0  0  0  0  0  0
  -21.6185  -39.4691   -3.5783 C   0  0  0  0  0  0  0  0  0  0  0  0
  -20.7280  -38.8849   -4.6185 C   0  0  0  0  0  0  0  0  0  0  0  0
  -19.3809  -38.6318   -4.3510 C   0  0  0  0  0  0  0  0  0  0  0  0
  -18.5666  -38.0928   -5.3220 C   0  0  0  0  0  0  0  0  0  0  0  0
  -17.1410  -37.8462   -4.9820 C   0  0  0  0  0  0  0  0  0  0  0  0
  -16.3993  -39.0551   -4.8373 N   0  0  0  0  0  0  0  0  0  0  0  0
  -16.2239  -39.8227   -6.0517 C   0  0  0  0  0  0  0  0  0  0  0  0
  -16.1479  -38.8923   -7.1943 C   0  0  1  0  0  0  0  0  0  0  0  0
  -14.8771  -38.5551   -7.6216 O   0  0  0  0  0  0  0  0  0  0  0  0
  -16.8906  -39.3348   -8.4539 C   0  0  2  0  0  0  0  0  0  0  0  0
  -16.0081  -39.1771   -9.6742 C   0  0  0  0  0  0  0  0  0  0  0  0
  -16.6181  -38.3018  -10.7399 C   0  0  0  0  0  0  0  0  0  0  0  0
  -17.6179  -38.5771  -11.6254 C   0  0  0  0  0  0  0  0  0  0  0  0
  -17.9905  -37.5663  -12.5083 C   0  0  0  0  0  0  0  0  0  0  0  0
  -17.3407  -36.3108  -12.4644 C   0  0  0  0  0  0  0  0  0  0  0  0
  -16.3338  -36.0165  -11.5805 C   0  0  0  0  0  0  0  0  0  0  0  0
  -15.9920  -37.0308  -10.7290 C   0  0  0  0  0  0  0  0  0  0  0  0
  -18.9583  -37.5798  -13.4910 O   0  0  0  0  0  0  0  0  0  0  0  0
  -19.3188  -38.3436  -14.5754 C   0  0  0  0  0  0  0  0  0  0  0  0
  -20.7511  -38.8177  -14.5453 C   0  0  0  0  0  0  0  0  0  0  0  0
  -20.7798  -40.1782  -13.8478 C   0  0  0  0  0  0  0  0  0  0  0  0
  -22.1708  -40.4147  -13.3435 C   0  0  0  0  0  0  0  0  0  0  0  0
  -22.2776  -40.5618  -12.0114 O   0  0  0  0  0  0  0  0  0  0  0  0
  -21.7070  -40.4103  -10.7829 C   0  0  0  0  0  0  0  0  0  0  0  0
  -22.2193  -41.3823   -9.8891 C   0  0  0  0  0  0  0  0  0  0  0  0
  -21.8376  -41.4818   -8.5794 C   0  0  0  0  0  0  0  0  0  0  0  0
  -20.9072  -40.5594   -8.1804 C   0  0  0  0  0  0  0  0  0  0  0  0
  -20.3586  -39.5664   -9.0278 C   0  0  0  0  0  0  0  0  0  0  0  0
  -20.7661  -39.4987  -10.3300 C   0  0  0  0  0  0  0  0  0  0  0  0
  -19.3920  -38.7469   -8.2561 C   0  0  0  0  0  0  0  0  0  0  0  0
  -19.8341  -38.2018   -7.1276 O   0  0  0  0  0  0  0  0  0  0  0  0
  -18.0477  -38.4202   -8.4874 N   0  0  0  0  0  0  0  0  0  0  0  0
  -22.3735  -42.4879   -7.6715 C   0  0  0  0  0  0  0  0  0  0  0  0
  -21.8163  -43.6118   -7.6920 O   0  0  0  0  0  0  0  0  0  0  0  0
  -23.4541  -42.2776   -6.7927 N   0  0  0  0  0  0  0  0  0  0  0  0
  -24.1031  -40.9933   -6.7225 C   0  0  0  0  0  0  0  0  0  0  0  0
  -23.9120  -43.3542   -5.9553 C   0  0  0  0  0  0  0  0  0  0  0  0
  -19.0972  -37.8236   -6.5092 N   0  0  0  0  0  0  0  0  0  0  0  0
  -20.3869  -38.0629   -6.7737 C   0  0  0  0  0  0  0  0  0  0  0  0
  -21.1825  -38.5869   -5.8337 N   0  0  0  0  0  0  0  0  0  0  0  0
  1  2  1  0
  2  3  1  0
  3  4  2  0
  4  5  1  0
  5  6  1  0
  6  7  1  0
  7  8  1  0
  8  9  1  0
  9 10  1  6
  9 11  1  0
 11 12  1  6
 12 13  1  0
 13 14  2  0
 14 15  1  0
 15 16  2  0
 16 17  1  0
 17 18  2  0
 15 19  1  0
 19 20  1  0
 20 21  1  0
 21 22  1  0
 22 23  1  0
 23 24  1  0
 24 25  1  0
 25 26  2  0
 26 27  1  0
 27 28  2  0
 28 29  1  0
 29 30  2  0
 29 31  1  0
 31 32  2  0
 31 33  1  0
 27 34  1  0
 34 35  2  0
 34 36  1  0
 36 37  1  0
 36 38  1  0
  5 39  2  0
 39 40  1  0
 40 41  2  0
 18 13  1  0
 30 25  1  0
 33 11  1  0
 41  3  1  0
M  END
$$$$
