
     RDKit          3D

 41 44  0  0  0  0  0  0  0  0999 V2000
   -9.2169  -39.1208  -11.8997 C   0  0  0  0  0  0  0  0  0  0  0  0
  -10.5527  -38.8160  -11.3010 C   0  0  0  0  0  0  0  0  0  0  0  0
  -11.2610  -40.0560  -10.8802 C   0  0  0  0  0  0  0  0  0  0  0  0
  -12.4821  -39.9917  -10.2056 C   0  0  0  0  0  0  0  0  0  0  0  0
  -13.1288  -41.1458   -9.8230 C   0  0  0  0  0  0  0  0  0  0  0  0
  -14.4262  -41.0173   -9.1096 C   0  0  0  0  0  0  0  0  0  0  0  0
  -14.5285  -39.7953   -8.3824 N   0  0  0  0  0  0  0  0  0  0  0  0
  -15.0855  -38.6812   -9.1196 C   0  0  0  0  0  0  0  0  0  0  0  0
  -16.2942  -38.2059   -8.4195 C   0  0  1  0  0  0  0  0  0  0  0  0
  -16.5681  -36.8550   -8.5262 O   0  0  0  0  0  0  0  0  0  0  0  0
  -17.5952  -38.9105   -8.8002 C   0  0  2  0  0  0  0  0  0  0  0  0
  -18.7311  -37.9139   -8.8951 C   0  0  0  0  0  0  0  0  0  0  0  0
  -19.8942  -38.2506   -7.9962 C   0  0  0  0  0  0  0  0  0  0  0  0
  -20.8566  -39.2059   -8.1392 C   0  0  0  0  0  0  0  0  0  0  0  0
  -21.8220  -39.3000   -7.1394 C   0  0  0  0  0  0  0  0  0  0  0  0
  -21.7800  -38.4259   -6.0282 C   0  0  0  0  0  0  0  0  0  0  0  0
  -20.8194  -37.4599   -5.8681 C   0  0  0  0  0  0  0  0  0  0  0  0
  -19.8880  -37.3939   -6.8677 C   0  0  0  0  0  0  0  0  0  0  0  0
  -22.8914  -40.1652   -7.0386 O   0  0  0  0  0  0  0  0  0  0  0  0
  -23.9650  -40.5731   -7.7938 C   0  0  0  0  0  0  0  0  0  0  0  0
  -24.0488  -42.0674   -7.9874 C   0  0  0  0  0  0  0  0  0  0  0  0
  -23.2886  -42.4174   -9.2672 C   0  0  0  0  0  0  0  0  0  0  0  0
  -22.9092  -43.8656   -9.2031 C   0  0  0  0  0  0  0  0  0  0  0  0
  -21.5878  -44.1114   -9.2357 O   0  0  0  0  0  0  0  0  0  0  0  0
  -20.3195  -43.6287   -9.1100 C   0  0  0  0  0  0  0  0  0  0  0  0
  -19.4306  -44.3931   -9.9047 C   0  0  0  0  0  0  0  0  0  0  0  0
  -18.0868  -44.1503   -9.9839 C   0  0  0  0  0  0  0  0  0  0  0  0
  -17.6478  -43.0965   -9.2273 C   0  0  0  0  0  0  0  0  0  0  0  0
  -18.4881  -42.2965   -8.4155 C   0  0  0  0  0  0  0  0  0  0  0  0
  -19.8252  -42.5713   -8.3622 C   0  0  0  0  0  0  0  0  0  0  0  0
  -17.6698  -41.2588   -7.7411 C   0  0  0  0  0  0  0  0  0  0  0  0
  -16.6186  -41.6814   -7.0464 O   0  0  0  0  0  0  0  0  0  0  0  0
  -17.7869  -39.8620   -7.6891 N   0  0  0  0  0  0  0  0  0  0  0  0
  -17.1844  -44.9456  -10.8068 C   0  0  0  0  0  0  0  0  0  0  0  0
  -17.0536  -46.1515  -10.4864 O   0  0  0  0  0  0  0  0  0  0  0  0
  -16.4681  -44.4517  -11.9145 N   0  0  0  0  0  0  0  0  0  0  0  0
  -15.5619  -45.3040  -12.6411 C   0  0  0  0  0  0  0  0  0  0  0  0
  -16.6406  -43.0828  -12.3224 C   0  0  0  0  0  0  0  0  0  0  0  0
  -12.5604  -42.3105  -10.1125 N   0  0  0  0  0  0  0  0  0  0  0  0
  -11.3905  -42.3810  -10.7584 C   0  0  0  0  0  0  0  0  0  0  0  0
  -10.7581  -41.2624  -11.1326 N   0  0  0  0  0  0  0  0  0  0  0  0
  1  2  1  0
  2  3  1  0
  3  4  2  0
  4  5  1  0
  5  6  1  0
  6  7  1  0
  7  8  1  0
  8  9  1  0
  9 10  1  6
  9 11  1  0
 11 12  1  1
 12 13  1  0
 13 14  2  0
 14 15  1  0
 15 16  2  0
 16 17  1  0
 17 18  2  0
 15 19  1  0
 19 20  1  0
 20 21  1  0
 21 22  1  0
 22 23  1  0
 23 24  1  0
 24 25  1  0
 25 26  2  0
 26 27  1  0
 27 28  2  0
 28 29  1  0
 29 30  2  0
 29 31  1  0
 31 32  2  0
 31 33  1  0
 27 34  1  0
 34 35  2  0
 34 36  1  0
 36 37  1  0
 36 38  1  0
  5 39  2  0
 39 40  1  0
 40 41  2  0
 18 13  1  0
 30 25  1  0
 33 11  1  0
 41  3  1  0
M  END
$$$$
