
     RDKit          3D

 39 42  0  0  0  0  0  0  0  0999 V2000
  -23.3203  -39.3431   -7.2674 C   0  0  0  0  0  0  0  0  0  0  0  0
  -23.7533  -40.4284   -6.3002 C   0  0  0  0  0  0  0  0  0  0  0  0
  -24.8317  -39.8646   -5.4267 C   0  0  0  0  0  0  0  0  0  0  0  0
  -24.3506  -41.5507   -7.1566 C   0  0  0  0  0  0  0  0  0  0  0  0
  -22.5896  -40.9339   -5.5330 C   0  0  0  0  0  0  0  0  0  0  0  0
  -22.7702  -41.1446   -4.1827 C   0  0  0  0  0  0  0  0  0  0  0  0
  -21.6805  -41.6162   -3.4692 C   0  0  0  0  0  0  0  0  0  0  0  0
  -20.4953  -41.8611   -4.0565 N   0  0  0  0  0  0  0  0  0  0  0  0
  -20.2950  -41.6618   -5.3791 C   0  0  0  0  0  0  0  0  0  0  0  0
  -18.9624  -41.9605   -5.9200 C   0  0  0  0  0  0  0  0  0  0  0  0
  -18.5688  -41.0212   -6.9630 N   0  0  0  0  0  0  0  0  0  0  0  0
  -17.5107  -40.1924   -6.4411 C   0  0  0  0  0  0  0  0  0  0  0  0
  -17.2273  -39.0086   -7.2960 C   0  0  1  0  0  0  0  0  0  0  0  0
  -16.3061  -38.1782   -6.6650 O   0  0  0  0  0  0  0  0  0  0  0  0
  -16.7692  -39.3258   -8.6943 C   0  0  2  0  0  0  0  0  0  0  0  0
  -17.2396  -38.3634   -9.7389 C   0  0  0  0  0  0  0  0  0  0  0  0
  -16.1926  -37.4641  -10.3231 C   0  0  0  0  0  0  0  0  0  0  0  0
  -16.4357  -36.1192   -9.9394 C   0  0  0  0  0  0  0  0  0  0  0  0
  -15.6576  -35.0643  -10.3222 C   0  0  0  0  0  0  0  0  0  0  0  0
  -14.5917  -35.3862  -11.1260 C   0  0  0  0  0  0  0  0  0  0  0  0
  -14.3082  -36.7006  -11.5347 C   0  0  0  0  0  0  0  0  0  0  0  0
  -15.1220  -37.7531  -11.1239 C   0  0  0  0  0  0  0  0  0  0  0  0
  -13.1859  -36.7347  -12.3359 O   0  0  0  0  0  0  0  0  0  0  0  0
  -12.7780  -37.1354  -13.5595 C   0  0  0  0  0  0  0  0  0  0  0  0
  -13.4528  -38.3020  -14.2508 C   0  0  0  0  0  0  0  0  0  0  0  0
  -14.6724  -38.5850  -14.5195 C   0  0  0  0  0  0  0  0  0  0  0  0
  -15.3610  -39.7439  -15.2089 C   0  0  0  0  0  0  0  0  0  0  0  0
  -15.2061  -40.9994  -14.5746 N   0  0  0  0  0  0  0  0  0  0  0  0
  -15.2671  -41.3853  -13.1805 C   0  0  0  0  0  0  0  0  0  0  0  0
  -16.2055  -41.1807  -12.2072 C   0  0  0  0  0  0  0  0  0  0  0  0
  -15.9075  -41.7131  -10.9615 C   0  0  0  0  0  0  0  0  0  0  0  0
  -14.6886  -42.4178  -10.7749 C   0  0  0  0  0  0  0  0  0  0  0  0
  -13.7610  -42.6105  -11.7703 C   0  0  0  0  0  0  0  0  0  0  0  0
  -12.2707  -43.4889  -11.4851 Cl  0  0  0  0  0  0  0  0  0  0  0  0
  -14.0855  -42.0868  -12.9352 N   0  0  0  0  0  0  0  0  0  0  0  0
  -16.6364  -41.6846   -9.6918 C   0  0  0  0  0  0  0  0  0  0  0  0
  -16.6867  -42.8352   -9.0628 O   0  0  0  0  0  0  0  0  0  0  0  0
  -17.3042  -40.6480   -8.9980 N   0  0  0  0  0  0  0  0  0  0  0  0
  -21.3586  -41.1950   -6.1087 C   0  0  0  0  0  0  0  0  0  0  0  0
  1  2  1  0
  2  3  1  0
  2  4  1  0
  2  5  1  0
  5  6  2  0
  6  7  1  0
  7  8  2  0
  8  9  1  0
  9 10  1  0
 10 11  1  0
 11 12  1  0
 12 13  1  0
 13 14  1  1
 13 15  1  0
 15 16  1  6
 16 17  1  0
 17 18  2  0
 18 19  1  0
 19 20  2  0
 20 21  1  0
 21 22  2  0
 21 23  1  0
 23 24  1  0
 24 25  1  0
 25 26  2  0
 26 27  1  0
 27 28  1  0
 28 29  1  0
 29 30  2  0
 30 31  1  0
 31 32  2  0
 32 33  1  0
 33 34  1  0
 33 35  2  0
 31 36  1  0
 36 37  2  0
 36 38  1  0
  9 39  2  0
 22 17  1  0
 35 29  1  0
 38 15  1  0
 39  5  1  0
M  END
$$$$
