
     RDKit          3D

 39 42  0  0  0  0  0  0  0  0999 V2000
  -10.2782  -36.0596  -12.1011 C   0  0  0  0  0  0  0  0  0  0  0  0
  -11.5936  -36.4340  -11.4450 C   0  0  0  0  0  0  0  0  0  0  0  0
  -11.3053  -36.8412  -10.0326 C   0  0  0  0  0  0  0  0  0  0  0  0
  -12.4404  -35.1563  -11.4253 C   0  0  0  0  0  0  0  0  0  0  0  0
  -12.2802  -37.4912  -12.2255 C   0  0  0  0  0  0  0  0  0  0  0  0
  -12.0750  -37.4999  -13.5886 C   0  0  0  0  0  0  0  0  0  0  0  0
  -12.7188  -38.4886  -14.3145 C   0  0  0  0  0  0  0  0  0  0  0  0
  -13.5104  -39.4039  -13.7269 N   0  0  0  0  0  0  0  0  0  0  0  0
  -13.7262  -39.4147  -12.3918 C   0  0  0  0  0  0  0  0  0  0  0  0
  -14.6083  -40.4577  -11.8517 C   0  0  0  0  0  0  0  0  0  0  0  0
  -16.0164  -40.1651  -12.0900 N   0  0  0  0  0  0  0  0  0  0  0  0
  -16.7885  -40.8209  -11.0641 C   0  0  0  0  0  0  0  0  0  0  0  0
  -17.4960  -39.8644  -10.1714 C   0  0  1  0  0  0  0  0  0  0  0  0
  -18.4457  -39.1523  -10.8975 O   0  0  0  0  0  0  0  0  0  0  0  0
  -18.1276  -40.4781   -8.9506 C   0  0  2  0  0  0  0  0  0  0  0  0
  -18.5600  -39.4941   -7.9097 C   0  0  0  0  0  0  0  0  0  0  0  0
  -20.0391  -39.3098   -7.7539 C   0  0  0  0  0  0  0  0  0  0  0  0
  -20.4150  -38.0067   -8.1735 C   0  0  0  0  0  0  0  0  0  0  0  0
  -21.6964  -37.5357   -8.1432 C   0  0  0  0  0  0  0  0  0  0  0  0
  -22.6329  -38.4206   -7.6682 C   0  0  0  0  0  0  0  0  0  0  0  0
  -22.3127  -39.7203   -7.2399 C   0  0  0  0  0  0  0  0  0  0  0  0
  -20.9953  -40.1688   -7.2863 C   0  0  0  0  0  0  0  0  0  0  0  0
  -23.4409  -40.3884   -6.8117 O   0  0  0  0  0  0  0  0  0  0  0  0
  -23.9363  -41.0342   -5.7338 C   0  0  0  0  0  0  0  0  0  0  0  0
  -23.0078  -41.7360   -4.7645 C   0  0  0  0  0  0  0  0  0  0  0  0
  -21.9648  -41.3706   -4.1176 C   0  0  0  0  0  0  0  0  0  0  0  0
  -21.0285  -42.0585   -3.1468 C   0  0  0  0  0  0  0  0  0  0  0  0
  -20.3177  -43.1619   -3.6759 N   0  0  0  0  0  0  0  0  0  0  0  0
  -19.6468  -43.3533   -4.9445 C   0  0  0  0  0  0  0  0  0  0  0  0
  -18.7011  -42.6211   -5.6073 C   0  0  0  0  0  0  0  0  0  0  0  0
  -18.2889  -43.1338   -6.8285 C   0  0  0  0  0  0  0  0  0  0  0  0
  -18.8510  -44.3486   -7.3032 C   0  0  0  0  0  0  0  0  0  0  0  0
  -19.8008  -45.0668   -6.6173 C   0  0  0  0  0  0  0  0  0  0  0  0
  -20.4621  -46.5621   -7.2503 Cl  0  0  0  0  0  0  0  0  0  0  0  0
  -20.1627  -44.5417   -5.4641 N   0  0  0  0  0  0  0  0  0  0  0  0
  -17.3313  -42.6371   -7.8186 C   0  0  0  0  0  0  0  0  0  0  0  0
  -16.5108  -43.5457   -8.2914 O   0  0  0  0  0  0  0  0  0  0  0  0
  -17.1138  -41.3551   -8.3763 N   0  0  0  0  0  0  0  0  0  0  0  0
  -13.1001  -38.4458  -11.6498 C   0  0  0  0  0  0  0  0  0  0  0  0
  1  2  1  0
  2  3  1  0
  2  4  1  0
  2  5  1  0
  5  6  2  0
  6  7  1  0
  7  8  2  0
  8  9  1  0
  9 10  1  0
 10 11  1  0
 11 12  1  0
 12 13  1  0
 13 14  1  6
 13 15  1  0
 15 16  1  1
 16 17  1  0
 17 18  2  0
 18 19  1  0
 19 20  2  0
 20 21  1  0
 21 22  2  0
 21 23  1  0
 23 24  1  0
 24 25  1  0
 25 26  2  0
 26 27  1  0
 27 28  1  0
 28 29  1  0
 29 30  2  0
 30 31  1  0
 31 32  2  0
 32 33  1  0
 33 34  1  0
 33 35  2  0
 31 36  1  0
 36 37  2  0
 36 38  1  0
  9 39  2  0
 22 17  1  0
 35 29  1  0
 38 15  1  0
 39  5  1  0
M  END
$$$$
