
     RDKit          3D

 39 42  0  0  0  0  0  0  0  0999 V2000
  -17.4308  -37.6652  -12.8361 C   0  0  0  0  0  0  0  0  0  0  0  0
  -18.2764  -36.5881  -12.1837 C   0  0  0  0  0  0  0  0  0  0  0  0
  -17.3811  -35.4319  -11.8592 C   0  0  0  0  0  0  0  0  0  0  0  0
  -19.2916  -36.1421  -13.2422 C   0  0  0  0  0  0  0  0  0  0  0  0
  -18.9798  -37.1291  -10.9959 C   0  0  0  0  0  0  0  0  0  0  0  0
  -20.0685  -37.9426  -11.2262 C   0  0  0  0  0  0  0  0  0  0  0  0
  -20.7234  -38.4455  -10.1140 C   0  0  0  0  0  0  0  0  0  0  0  0
  -20.3243  -38.1599   -8.8614 N   0  0  0  0  0  0  0  0  0  0  0  0
  -19.2594  -37.3644   -8.6115 C   0  0  0  0  0  0  0  0  0  0  0  0
  -18.9079  -37.1162   -7.2071 C   0  0  0  0  0  0  0  0  0  0  0  0
  -18.0472  -38.1592   -6.6627 N   0  0  0  0  0  0  0  0  0  0  0  0
  -16.7122  -37.9419   -7.1618 C   0  0  0  0  0  0  0  0  0  0  0  0
  -16.0722  -39.1868   -7.6647 C   0  0  1  0  0  0  0  0  0  0  0  0
  -15.2765  -39.7460   -6.6694 O   0  0  0  0  0  0  0  0  0  0  0  0
  -17.0232  -40.2179   -8.2108 C   0  0  2  0  0  0  0  0  0  0  0  0
  -16.8356  -40.5343   -9.6611 C   0  0  0  0  0  0  0  0  0  0  0  0
  -16.2593  -41.8829   -9.9703 C   0  0  0  0  0  0  0  0  0  0  0  0
  -14.9615  -41.7423  -10.5281 C   0  0  0  0  0  0  0  0  0  0  0  0
  -14.1826  -42.7926  -10.9216 C   0  0  0  0  0  0  0  0  0  0  0  0
  -14.7422  -44.0339  -10.7428 C   0  0  0  0  0  0  0  0  0  0  0  0
  -16.0225  -44.2269  -10.1964 C   0  0  0  0  0  0  0  0  0  0  0  0
  -16.7892  -43.1329   -9.8039 C   0  0  0  0  0  0  0  0  0  0  0  0
  -16.3328  -45.5695  -10.1341 O   0  0  0  0  0  0  0  0  0  0  0  0
  -17.2670  -46.4541  -10.5450 C   0  0  0  0  0  0  0  0  0  0  0  0
  -18.6983  -46.0119  -10.7692 C   0  0  0  0  0  0  0  0  0  0  0  0
  -19.2359  -45.0671  -11.4462 C   0  0  0  0  0  0  0  0  0  0  0  0
  -20.6614  -44.6138  -11.6802 C   0  0  0  0  0  0  0  0  0  0  0  0
  -21.3534  -44.1831  -10.5235 N   0  0  0  0  0  0  0  0  0  0  0  0
  -20.9414  -43.3534   -9.4108 C   0  0  0  0  0  0  0  0  0  0  0  0
  -20.3731  -42.1113   -9.3474 C   0  0  0  0  0  0  0  0  0  0  0  0
  -20.1161  -41.6307   -8.0719 C   0  0  0  0  0  0  0  0  0  0  0  0
  -20.4485  -42.4270   -6.9438 C   0  0  0  0  0  0  0  0  0  0  0  0
  -21.0200  -43.6734   -7.0339 C   0  0  0  0  0  0  0  0  0  0  0  0
  -21.4099  -44.6150   -5.6072 Cl  0  0  0  0  0  0  0  0  0  0  0  0
  -21.2445  -44.0893   -8.2641 N   0  0  0  0  0  0  0  0  0  0  0  0
  -19.5102  -40.3814   -7.6069 C   0  0  0  0  0  0  0  0  0  0  0  0
  -20.1438  -39.8007   -6.6152 O   0  0  0  0  0  0  0  0  0  0  0  0
  -18.3599  -39.6677   -8.0186 N   0  0  0  0  0  0  0  0  0  0  0  0
  -18.5931  -36.8533   -9.6961 C   0  0  0  0  0  0  0  0  0  0  0  0
  1  2  1  0
  2  3  1  0
  2  4  1  0
  2  5  1  0
  5  6  2  0
  6  7  1  0
  7  8  2  0
  8  9  1  0
  9 10  1  0
 10 11  1  0
 11 12  1  0
 12 13  1  0
 13 14  1  1
 13 15  1  0
 15 16  1  6
 16 17  1  0
 17 18  2  0
 18 19  1  0
 19 20  2  0
 20 21  1  0
 21 22  2  0
 21 23  1  0
 23 24  1  0
 24 25  1  0
 25 26  2  0
 26 27  1  0
 27 28  1  0
 28 29  1  0
 29 30  2  0
 30 31  1  0
 31 32  2  0
 32 33  1  0
 33 34  1  0
 33 35  2  0
 31 36  1  0
 36 37  2  0
 36 38  1  0
  9 39  2  0
 22 17  1  0
 35 29  1  0
 38 15  1  0
 39  5  1  0
M  END
$$$$
