
     RDKit          3D

 39 42  0  0  0  0  0  0  0  0999 V2000
  -17.2166  -37.7964   -4.8169 C   0  0  0  0  0  0  0  0  0  0  0  0
  -16.8723  -38.5913   -6.0622 C   0  0  0  0  0  0  0  0  0  0  0  0
  -15.3896  -38.5165   -6.2620 C   0  0  0  0  0  0  0  0  0  0  0  0
  -17.2553  -40.0447   -5.7609 C   0  0  0  0  0  0  0  0  0  0  0  0
  -17.6411  -38.0902   -7.2266 C   0  0  0  0  0  0  0  0  0  0  0  0
  -18.9129  -37.6169   -6.9839 C   0  0  0  0  0  0  0  0  0  0  0  0
  -19.6284  -37.1503   -8.0745 C   0  0  0  0  0  0  0  0  0  0  0  0
  -19.1158  -37.1539   -9.3182 N   0  0  0  0  0  0  0  0  0  0  0  0
  -17.8709  -37.6133   -9.5800 C   0  0  0  0  0  0  0  0  0  0  0  0
  -17.4077  -37.5726  -10.9733 C   0  0  0  0  0  0  0  0  0  0  0  0
  -16.7380  -38.8062  -11.3667 N   0  0  0  0  0  0  0  0  0  0  0  0
  -17.4848  -39.9128  -10.8220 C   0  0  0  0  0  0  0  0  0  0  0  0
  -18.9349  -39.8482  -11.1462 C   0  0  1  0  0  0  0  0  0  0  0  0
  -19.1600  -40.3679  -12.4173 O   0  0  0  0  0  0  0  0  0  0  0  0
  -19.8432  -40.5108  -10.1452 C   0  0  2  0  0  0  0  0  0  0  0  0
  -21.3040  -40.3537  -10.4277 C   0  0  0  0  0  0  0  0  0  0  0  0
  -22.0213  -41.5877  -10.8849 C   0  0  0  0  0  0  0  0  0  0  0  0
  -22.4343  -41.4395  -12.2350 C   0  0  0  0  0  0  0  0  0  0  0  0
  -23.1202  -42.3928  -12.9318 C   0  0  0  0  0  0  0  0  0  0  0  0
  -23.3985  -43.5409  -12.2315 C   0  0  0  0  0  0  0  0  0  0  0  0
  -23.0132  -43.7366  -10.8943 C   0  0  0  0  0  0  0  0  0  0  0  0
  -22.3128  -42.7437  -10.2144 C   0  0  0  0  0  0  0  0  0  0  0  0
  -23.4228  -44.9732  -10.4409 O   0  0  0  0  0  0  0  0  0  0  0  0
  -24.1537  -45.5454   -9.4597 C   0  0  0  0  0  0  0  0  0  0  0  0
  -24.2857  -44.8739   -8.1085 C   0  0  0  0  0  0  0  0  0  0  0  0
  -24.6298  -43.6982   -7.7355 C   0  0  0  0  0  0  0  0  0  0  0  0
  -24.7672  -43.0137   -6.3920 C   0  0  0  0  0  0  0  0  0  0  0  0
  -23.5685  -42.9023   -5.6481 N   0  0  0  0  0  0  0  0  0  0  0  0
  -22.2223  -42.5453   -6.0435 C   0  0  0  0  0  0  0  0  0  0  0  0
  -21.7156  -41.4773   -6.7307 C   0  0  0  0  0  0  0  0  0  0  0  0
  -20.3416  -41.4804   -6.9214 C   0  0  0  0  0  0  0  0  0  0  0  0
  -19.5662  -42.5538   -6.4079 C   0  0  0  0  0  0  0  0  0  0  0  0
  -20.0997  -43.6166   -5.7194 C   0  0  0  0  0  0  0  0  0  0  0  0
  -19.0955  -44.9168   -5.1069 Cl  0  0  0  0  0  0  0  0  0  0  0  0
  -21.4075  -43.5721   -5.5635 N   0  0  0  0  0  0  0  0  0  0  0  0
  -19.4531  -40.5426   -7.6107 C   0  0  0  0  0  0  0  0  0  0  0  0
  -18.3562  -40.2441   -6.9552 O   0  0  0  0  0  0  0  0  0  0  0  0
  -19.5427  -39.8874   -8.8616 N   0  0  0  0  0  0  0  0  0  0  0  0
  -17.1412  -38.0811   -8.5170 C   0  0  0  0  0  0  0  0  0  0  0  0
  1  2  1  0
  2  3  1  0
  2  4  1  0
  2  5  1  0
  5  6  2  0
  6  7  1  0
  7  8  2  0
  8  9  1  0
  9 10  1  0
 10 11  1  0
 11 12  1  0
 12 13  1  0
 13 14  1  6
 13 15  1  0
 15 16  1  6
 16 17  1  0
 17 18  2  0
 18 19  1  0
 19 20  2  0
 20 21  1  0
 21 22  2  0
 21 23  1  0
 23 24  1  0
 24 25  1  0
 25 26  2  0
 26 27  1  0
 27 28  1  0
 28 29  1  0
 29 30  2  0
 30 31  1  0
 31 32  2  0
 32 33  1  0
 33 34  1  0
 33 35  2  0
 31 36  1  0
 36 37  2  0
 36 38  1  0
  9 39  2  0
 22 17  1  0
 35 29  1  0
 38 15  1  0
 39  5  1  0
M  END
$$$$
