
     RDKit          3D

 39 42  0  0  0  0  0  0  0  0999 V2000
  -12.6936  -41.3791  -14.3021 C   0  0  0  0  0  0  0  0  0  0  0  0
  -13.0640  -42.4186  -13.2614 C   0  0  0  0  0  0  0  0  0  0  0  0
  -14.4760  -42.8470  -13.5194 C   0  0  0  0  0  0  0  0  0  0  0  0
  -12.1355  -43.6143  -13.5023 C   0  0  0  0  0  0  0  0  0  0  0  0
  -12.8610  -41.8800  -11.8950 C   0  0  0  0  0  0  0  0  0  0  0  0
  -12.3553  -42.7438  -10.9473 C   0  0  0  0  0  0  0  0  0  0  0  0
  -12.1678  -42.2372   -9.6718 C   0  0  0  0  0  0  0  0  0  0  0  0
  -12.4622  -40.9620   -9.3604 N   0  0  0  0  0  0  0  0  0  0  0  0
  -12.9591  -40.0968  -10.2735 C   0  0  0  0  0  0  0  0  0  0  0  0
  -13.2465  -38.7265   -9.8293 C   0  0  0  0  0  0  0  0  0  0  0  0
  -14.4420  -38.1825  -10.4616 N   0  0  0  0  0  0  0  0  0  0  0  0
  -15.5614  -39.0099  -10.0863 C   0  0  0  0  0  0  0  0  0  0  0  0
  -16.2280  -38.5510   -8.8384 C   0  0  1  0  0  0  0  0  0  0  0  0
  -16.9317  -37.3754   -9.0818 O   0  0  0  0  0  0  0  0  0  0  0  0
  -17.1241  -39.5670   -8.1823 C   0  0  2  0  0  0  0  0  0  0  0  0
  -17.7702  -39.1038   -6.9148 C   0  0  0  0  0  0  0  0  0  0  0  0
  -19.2446  -38.8444   -6.9854 C   0  0  0  0  0  0  0  0  0  0  0  0
  -19.5037  -37.4574   -6.8291 C   0  0  0  0  0  0  0  0  0  0  0  0
  -20.7544  -36.9093   -6.8393 C   0  0  0  0  0  0  0  0  0  0  0  0
  -21.7823  -37.8030   -7.0141 C   0  0  0  0  0  0  0  0  0  0  0  0
  -21.5794  -39.1846   -7.1723 C   0  0  0  0  0  0  0  0  0  0  0  0
  -20.2899  -39.7095   -7.1588 C   0  0  0  0  0  0  0  0  0  0  0  0
  -22.7815  -39.8433   -7.3264 O   0  0  0  0  0  0  0  0  0  0  0  0
  -23.5130  -40.8398   -6.7824 C   0  0  0  0  0  0  0  0  0  0  0  0
  -22.8334  -41.9964   -6.0790 C   0  0  0  0  0  0  0  0  0  0  0  0
  -21.9594  -42.0732   -5.1462 C   0  0  0  0  0  0  0  0  0  0  0  0
  -21.2724  -43.2189   -4.4337 C   0  0  0  0  0  0  0  0  0  0  0  0
  -20.4715  -44.0457   -5.2568 N   0  0  0  0  0  0  0  0  0  0  0  0
  -19.5340  -43.7293   -6.3138 C   0  0  0  0  0  0  0  0  0  0  0  0
  -18.4564  -42.8895   -6.3699 C   0  0  0  0  0  0  0  0  0  0  0  0
  -17.7848  -42.8512   -7.5830 C   0  0  0  0  0  0  0  0  0  0  0  0
  -18.2374  -43.6598   -8.6593 C   0  0  0  0  0  0  0  0  0  0  0  0
  -19.3241  -44.4969   -8.5776 C   0  0  0  0  0  0  0  0  0  0  0  0
  -19.8404  -45.4741   -9.9387 Cl  0  0  0  0  0  0  0  0  0  0  0  0
  -19.9313  -44.4997   -7.4080 N   0  0  0  0  0  0  0  0  0  0  0  0
  -16.6241  -42.0776   -8.0282 C   0  0  0  0  0  0  0  0  0  0  0  0
  -15.7271  -42.7681   -8.6920 O   0  0  0  0  0  0  0  0  0  0  0  0
  -16.2742  -40.7141   -7.8850 N   0  0  0  0  0  0  0  0  0  0  0  0
  -13.1543  -40.5737  -11.5447 C   0  0  0  0  0  0  0  0  0  0  0  0
  1  2  1  0
  2  3  1  0
  2  4  1  0
  2  5  1  0
  5  6  2  0
  6  7  1  0
  7  8  2  0
  8  9  1  0
  9 10  1  0
 10 11  1  0
 11 12  1  0
 12 13  1  0
 13 14  1  6
 13 15  1  0
 15 16  1  1
 16 17  1  0
 17 18  2  0
 18 19  1  0
 19 20  2  0
 20 21  1  0
 21 22  2  0
 21 23  1  0
 23 24  1  0
 24 25  1  0
 25 26  2  0
 26 27  1  0
 27 28  1  0
 28 29  1  0
 29 30  2  0
 30 31  1  0
 31 32  2  0
 32 33  1  0
 33 34  1  0
 33 35  2  0
 31 36  1  0
 36 37  2  0
 36 38  1  0
  9 39  2  0
 22 17  1  0
 35 29  1  0
 38 15  1  0
 39  5  1  0
M  END
$$$$
