
     RDKit          3D

 39 42  0  0  0  0  0  0  0  0999 V2000
  -24.0725  -41.2557   -6.4795 C   0  0  0  0  0  0  0  0  0  0  0  0
  -23.6345  -40.1987   -5.4836 C   0  0  0  0  0  0  0  0  0  0  0  0
  -23.9647  -38.8563   -6.0604 C   0  0  0  0  0  0  0  0  0  0  0  0
  -24.4850  -40.4168   -4.2270 C   0  0  0  0  0  0  0  0  0  0  0  0
  -22.1957  -40.3543   -5.1612 C   0  0  0  0  0  0  0  0  0  0  0  0
  -21.7599  -41.6178   -4.8240 C   0  0  0  0  0  0  0  0  0  0  0  0
  -20.4152  -41.7590   -4.5227 C   0  0  0  0  0  0  0  0  0  0  0  0
  -19.5640  -40.7177   -4.5545 N   0  0  0  0  0  0  0  0  0  0  0  0
  -19.9690  -39.4697   -4.8824 C   0  0  0  0  0  0  0  0  0  0  0  0
  -18.9585  -38.4036   -4.8867 C   0  0  0  0  0  0  0  0  0  0  0  0
  -17.6175  -38.9176   -5.1368 N   0  0  0  0  0  0  0  0  0  0  0  0
  -17.1625  -38.3837   -6.3965 C   0  0  0  0  0  0  0  0  0  0  0  0
  -18.1696  -38.5233   -7.4821 C   0  0  1  0  0  0  0  0  0  0  0  0
  -17.9956  -37.5126   -8.4227 O   0  0  0  0  0  0  0  0  0  0  0  0
  -18.1947  -39.8666   -8.1610 C   0  0  2  0  0  0  0  0  0  0  0  0
  -19.4804  -40.1925   -8.8533 C   0  0  0  0  0  0  0  0  0  0  0  0
  -19.4392  -40.1891  -10.3514 C   0  0  0  0  0  0  0  0  0  0  0  0
  -20.2217  -39.1184  -10.8582 C   0  0  0  0  0  0  0  0  0  0  0  0
  -20.3874  -38.8579  -12.1884 C   0  0  0  0  0  0  0  0  0  0  0  0
  -19.7345  -39.7173  -13.0376 C   0  0  0  0  0  0  0  0  0  0  0  0
  -18.9492  -40.7921  -12.5871 C   0  0  0  0  0  0  0  0  0  0  0  0
  -18.8002  -41.0277  -11.2228 C   0  0  0  0  0  0  0  0  0  0  0  0
  -18.4146  -41.4897  -13.6503 O   0  0  0  0  0  0  0  0  0  0  0  0
  -18.3626  -42.7338  -14.1734 C   0  0  0  0  0  0  0  0  0  0  0  0
  -18.4724  -43.9498  -13.2769 C   0  0  0  0  0  0  0  0  0  0  0  0
  -19.3133  -44.3162  -12.3833 C   0  0  0  0  0  0  0  0  0  0  0  0
  -19.4368  -45.5260  -11.4814 C   0  0  0  0  0  0  0  0  0  0  0  0
  -18.3770  -45.7004  -10.5601 N   0  0  0  0  0  0  0  0  0  0  0  0
  -17.6690  -44.7569   -9.7206 C   0  0  0  0  0  0  0  0  0  0  0  0
  -18.0974  -43.8237   -8.8177 C   0  0  0  0  0  0  0  0  0  0  0  0
  -17.1011  -43.0892   -8.1916 C   0  0  0  0  0  0  0  0  0  0  0  0
  -15.7403  -43.3411   -8.5109 C   0  0  0  0  0  0  0  0  0  0  0  0
  -15.3350  -44.2859   -9.4227 C   0  0  0  0  0  0  0  0  0  0  0  0
  -13.6398  -44.5559   -9.7798 Cl  0  0  0  0  0  0  0  0  0  0  0  0
  -16.3148  -44.9578   -9.9930 N   0  0  0  0  0  0  0  0  0  0  0  0
  -17.1631  -42.0104   -7.2034 C   0  0  0  0  0  0  0  0  0  0  0  0
  -16.3146  -42.1282   -6.2093 O   0  0  0  0  0  0  0  0  0  0  0  0
  -17.9655  -40.8490   -7.1078 N   0  0  0  0  0  0  0  0  0  0  0  0
  -21.2963  -39.3028   -5.1852 C   0  0  0  0  0  0  0  0  0  0  0  0
  1  2  1  0
  2  3  1  0
  2  4  1  0
  2  5  1  0
  5  6  2  0
  6  7  1  0
  7  8  2  0
  8  9  1  0
  9 10  1  0
 10 11  1  0
 11 12  1  0
 12 13  1  0
 13 14  1  6
 13 15  1  0
 15 16  1  1
 16 17  1  0
 17 18  2  0
 18 19  1  0
 19 20  2  0
 20 21  1  0
 21 22  2  0
 21 23  1  0
 23 24  1  0
 24 25  1  0
 25 26  2  0
 26 27  1  0
 27 28  1  0
 28 29  1  0
 29 30  2  0
 30 31  1  0
 31 32  2  0
 32 33  1  0
 33 34  1  0
 33 35  2  0
 31 36  1  0
 36 37  2  0
 36 38  1  0
  9 39  2  0
 22 17  1  0
 35 29  1  0
 38 15  1  0
 39  5  1  0
M  END
$$$$
