
     RDKit          3D

 39 42  0  0  0  0  0  0  0  0999 V2000
  -22.1575  -40.6408   -9.6194 C   0  0  0  0  0  0  0  0  0  0  0  0
  -22.8075  -41.5926   -8.6332 C   0  0  0  0  0  0  0  0  0  0  0  0
  -24.2782  -41.6171   -8.9164 C   0  0  0  0  0  0  0  0  0  0  0  0
  -22.2262  -42.9794   -8.9310 C   0  0  0  0  0  0  0  0  0  0  0  0
  -22.4908  -41.1930   -7.2410 C   0  0  0  0  0  0  0  0  0  0  0  0
  -22.7318  -42.1207   -6.2503 C   0  0  0  0  0  0  0  0  0  0  0  0
  -22.4354  -41.7434   -4.9508 C   0  0  0  0  0  0  0  0  0  0  0  0
  -21.9349  -40.5298   -4.6570 N   0  0  0  0  0  0  0  0  0  0  0  0
  -21.6905  -39.6040   -5.6121 C   0  0  0  0  0  0  0  0  0  0  0  0
  -21.1434  -38.3098   -5.1838 C   0  0  0  0  0  0  0  0  0  0  0  0
  -20.1186  -37.8168   -6.0958 N   0  0  0  0  0  0  0  0  0  0  0  0
  -18.9260  -38.6014   -5.8933 C   0  0  0  0  0  0  0  0  0  0  0  0
  -17.7401  -38.0446   -6.5976 C   0  0  1  0  0  0  0  0  0  0  0  0
  -16.7097  -37.8237   -5.6888 O   0  0  0  0  0  0  0  0  0  0  0  0
  -17.2432  -38.8648   -7.7579 C   0  0  2  0  0  0  0  0  0  0  0  0
  -17.8809  -38.5388   -9.0715 C   0  0  0  0  0  0  0  0  0  0  0  0
  -17.0103  -37.8349  -10.0679 C   0  0  0  0  0  0  0  0  0  0  0  0
  -17.4812  -36.5123  -10.2784 C   0  0  0  0  0  0  0  0  0  0  0  0
  -16.9011  -35.6240  -11.1382 C   0  0  0  0  0  0  0  0  0  0  0  0
  -15.8009  -36.0959  -11.8111 C   0  0  0  0  0  0  0  0  0  0  0  0
  -15.2958  -37.3960  -11.6394 C   0  0  0  0  0  0  0  0  0  0  0  0
  -15.9112  -38.2755  -10.7526 C   0  0  0  0  0  0  0  0  0  0  0  0
  -14.1901  -37.6029  -12.4378 O   0  0  0  0  0  0  0  0  0  0  0  0
  -13.7269  -38.4288  -13.4009 C   0  0  0  0  0  0  0  0  0  0  0  0
  -14.1930  -39.8684  -13.4685 C   0  0  0  0  0  0  0  0  0  0  0  0
  -15.3466  -40.4239  -13.4894 C   0  0  0  0  0  0  0  0  0  0  0  0
  -15.8277  -41.8579  -13.5574 C   0  0  0  0  0  0  0  0  0  0  0  0
  -15.4524  -42.6711  -12.4618 N   0  0  0  0  0  0  0  0  0  0  0  0
  -15.4359  -42.4152  -11.0369 C   0  0  0  0  0  0  0  0  0  0  0  0
  -16.3890  -41.9539  -10.1717 C   0  0  0  0  0  0  0  0  0  0  0  0
  -15.9946  -41.8374   -8.8470 C   0  0  0  0  0  0  0  0  0  0  0  0
  -14.6704  -42.1936   -8.4771 C   0  0  0  0  0  0  0  0  0  0  0  0
  -13.7301  -42.6557   -9.3663 C   0  0  0  0  0  0  0  0  0  0  0  0
  -12.1078  -43.0813   -8.8556 Cl  0  0  0  0  0  0  0  0  0  0  0  0
  -14.1486  -42.7487  -10.6125 N   0  0  0  0  0  0  0  0  0  0  0  0
  -16.7087  -41.3709   -7.6568 C   0  0  0  0  0  0  0  0  0  0  0  0
  -16.5538  -42.1249   -6.5940 O   0  0  0  0  0  0  0  0  0  0  0  0
  -17.5420  -40.2519   -7.4215 N   0  0  0  0  0  0  0  0  0  0  0  0
  -21.9755  -39.9527   -6.9078 C   0  0  0  0  0  0  0  0  0  0  0  0
  1  2  1  0
  2  3  1  0
  2  4  1  0
  2  5  1  0
  5  6  2  0
  6  7  1  0
  7  8  2  0
  8  9  1  0
  9 10  1  0
 10 11  1  0
 11 12  1  0
 12 13  1  0
 13 14  1  1
 13 15  1  0
 15 16  1  6
 16 17  1  0
 17 18  2  0
 18 19  1  0
 19 20  2  0
 20 21  1  0
 21 22  2  0
 21 23  1  0
 23 24  1  0
 24 25  1  0
 25 26  2  0
 26 27  1  0
 27 28  1  0
 28 29  1  0
 29 30  2  0
 30 31  1  0
 31 32  2  0
 32 33  1  0
 33 34  1  0
 33 35  2  0
 31 36  1  0
 36 37  2  0
 36 38  1  0
  9 39  2  0
 22 17  1  0
 35 29  1  0
 38 15  1  0
 39  5  1  0
M  END
$$$$
