
     RDKit          3D

 39 42  0  0  0  0  0  0  0  0999 V2000
  -17.0944  -33.5186  -10.1058 C   0  0  0  0  0  0  0  0  0  0  0  0
  -17.1966  -34.3432  -11.3749 C   0  0  0  0  0  0  0  0  0  0  0  0
  -18.6484  -34.4945  -11.7112 C   0  0  0  0  0  0  0  0  0  0  0  0
  -16.5200  -33.5188  -12.4760 C   0  0  0  0  0  0  0  0  0  0  0  0
  -16.5010  -35.6418  -11.2072 C   0  0  0  0  0  0  0  0  0  0  0  0
  -16.4134  -36.4560  -12.3160 C   0  0  0  0  0  0  0  0  0  0  0  0
  -15.7635  -37.6687  -12.1551 C   0  0  0  0  0  0  0  0  0  0  0  0
  -15.2379  -38.0453  -10.9755 N   0  0  0  0  0  0  0  0  0  0  0  0
  -15.3118  -37.2631   -9.8746 C   0  0  0  0  0  0  0  0  0  0  0  0
  -14.7050  -37.7690   -8.6363 C   0  0  0  0  0  0  0  0  0  0  0  0
  -15.5011  -37.4415   -7.4598 N   0  0  0  0  0  0  0  0  0  0  0  0
  -15.6579  -38.6429   -6.6783 C   0  0  0  0  0  0  0  0  0  0  0  0
  -15.7784  -39.8665   -7.5153 C   0  0  1  0  0  0  0  0  0  0  0  0
  -15.0060  -40.8894   -6.9734 O   0  0  0  0  0  0  0  0  0  0  0  0
  -17.1865  -40.3453   -7.7473 C   0  0  2  0  0  0  0  0  0  0  0  0
  -17.4094  -41.0132   -9.0674 C   0  0  0  0  0  0  0  0  0  0  0  0
  -17.6309  -42.4949   -9.0251 C   0  0  0  0  0  0  0  0  0  0  0  0
  -16.5387  -43.1687   -9.6322 C   0  0  0  0  0  0  0  0  0  0  0  0
  -16.4527  -44.5260   -9.7546 C   0  0  0  0  0  0  0  0  0  0  0  0
  -17.5163  -45.2272   -9.2418 C   0  0  0  0  0  0  0  0  0  0  0  0
  -18.6212  -44.6084   -8.6325 C   0  0  0  0  0  0  0  0  0  0  0  0
  -18.6753  -43.2214   -8.5228 C   0  0  0  0  0  0  0  0  0  0  0  0
  -19.5399  -45.5473   -8.2115 O   0  0  0  0  0  0  0  0  0  0  0  0
  -20.8401  -45.8846   -8.3520 C   0  0  0  0  0  0  0  0  0  0  0  0
  -21.8811  -44.8252   -8.6492 C   0  0  0  0  0  0  0  0  0  0  0  0
  -21.9804  -43.9080   -9.5374 C   0  0  0  0  0  0  0  0  0  0  0  0
  -23.0125  -42.8444   -9.8472 C   0  0  0  0  0  0  0  0  0  0  0  0
  -23.2106  -41.8832   -8.8277 N   0  0  0  0  0  0  0  0  0  0  0  0
  -22.2742  -41.1719   -7.9830 C   0  0  0  0  0  0  0  0  0  0  0  0
  -21.1649  -40.4230   -8.2626 C   0  0  0  0  0  0  0  0  0  0  0  0
  -20.5080  -39.8862   -7.1652 C   0  0  0  0  0  0  0  0  0  0  0  0
  -21.0088  -40.1341   -5.8595 C   0  0  0  0  0  0  0  0  0  0  0  0
  -22.1273  -40.8907   -5.6045 C   0  0  0  0  0  0  0  0  0  0  0  0
  -22.7023  -41.1657   -3.9712 Cl  0  0  0  0  0  0  0  0  0  0  0  0
  -22.7174  -41.3810   -6.6759 N   0  0  0  0  0  0  0  0  0  0  0  0
  -19.3000  -39.0653   -7.0604 C   0  0  0  0  0  0  0  0  0  0  0  0
  -19.3999  -38.0451   -6.2410 O   0  0  0  0  0  0  0  0  0  0  0  0
  -18.0281  -39.1566   -7.6736 N   0  0  0  0  0  0  0  0  0  0  0  0
  -15.9506  -36.0565  -10.0072 C   0  0  0  0  0  0  0  0  0  0  0  0
  1  2  1  0
  2  3  1  0
  2  4  1  0
  2  5  1  0
  5  6  2  0
  6  7  1  0
  7  8  2  0
  8  9  1  0
  9 10  1  0
 10 11  1  0
 11 12  1  0
 12 13  1  0
 13 14  1  1
 13 15  1  0
 15 16  1  6
 16 17  1  0
 17 18  2  0
 18 19  1  0
 19 20  2  0
 20 21  1  0
 21 22  2  0
 21 23  1  0
 23 24  1  0
 24 25  1  0
 25 26  2  0
 26 27  1  0
 27 28  1  0
 28 29  1  0
 29 30  2  0
 30 31  1  0
 31 32  2  0
 32 33  1  0
 33 34  1  0
 33 35  2  0
 31 36  1  0
 36 37  2  0
 36 38  1  0
  9 39  2  0
 22 17  1  0
 35 29  1  0
 38 15  1  0
 39  5  1  0
M  END
$$$$
