
     RDKit          3D

 39 42  0  0  0  0  0  0  0  0999 V2000
  -12.7861  -36.2733  -14.5790 C   0  0  0  0  0  0  0  0  0  0  0  0
  -12.7615  -36.0799  -13.0746 C   0  0  0  0  0  0  0  0  0  0  0  0
  -11.3875  -35.6235  -12.6905 C   0  0  0  0  0  0  0  0  0  0  0  0
  -13.7564  -34.9536  -12.7721 C   0  0  0  0  0  0  0  0  0  0  0  0
  -13.1735  -37.3259  -12.3846 C   0  0  0  0  0  0  0  0  0  0  0  0
  -13.6025  -38.3703  -13.1755 C   0  0  0  0  0  0  0  0  0  0  0  0
  -13.9874  -39.5324  -12.5272 C   0  0  0  0  0  0  0  0  0  0  0  0
  -13.9485  -39.6481  -11.1875 N   0  0  0  0  0  0  0  0  0  0  0  0
  -13.5315  -38.6371  -10.3918 C   0  0  0  0  0  0  0  0  0  0  0  0
  -13.5278  -38.8677   -8.9411 C   0  0  0  0  0  0  0  0  0  0  0  0
  -14.7953  -39.4096   -8.4671 N   0  0  0  0  0  0  0  0  0  0  0  0
  -15.8074  -38.3980   -8.6438 C   0  0  0  0  0  0  0  0  0  0  0  0
  -16.9341  -38.5320   -7.6821 C   0  0  1  0  0  0  0  0  0  0  0  0
  -17.8817  -37.5414   -7.9213 O   0  0  0  0  0  0  0  0  0  0  0  0
  -17.5925  -39.8854   -7.6544 C   0  0  2  0  0  0  0  0  0  0  0  0
  -18.5006  -40.1143   -6.4875 C   0  0  0  0  0  0  0  0  0  0  0  0
  -19.9671  -40.1545   -6.7942 C   0  0  0  0  0  0  0  0  0  0  0  0
  -20.6170  -39.0326   -6.2162 C   0  0  0  0  0  0  0  0  0  0  0  0
  -21.9580  -38.7940   -6.3140 C   0  0  0  0  0  0  0  0  0  0  0  0
  -22.6674  -39.7303   -7.0253 C   0  0  0  0  0  0  0  0  0  0  0  0
  -22.0722  -40.8581   -7.6159 C   0  0  0  0  0  0  0  0  0  0  0  0
  -20.7010  -41.0695   -7.4979 C   0  0  0  0  0  0  0  0  0  0  0  0
  -23.0151  -41.6285   -8.2641 O   0  0  0  0  0  0  0  0  0  0  0  0
  -23.5074  -42.8859   -8.2934 C   0  0  0  0  0  0  0  0  0  0  0  0
  -22.6326  -44.0629   -7.9147 C   0  0  0  0  0  0  0  0  0  0  0  0
  -21.9005  -44.3293   -6.8984 C   0  0  0  0  0  0  0  0  0  0  0  0
  -21.0228  -45.4988   -6.5058 C   0  0  0  0  0  0  0  0  0  0  0  0
  -19.9246  -45.7420   -7.3646 N   0  0  0  0  0  0  0  0  0  0  0  0
  -18.9816  -44.8430   -7.9960 C   0  0  0  0  0  0  0  0  0  0  0  0
  -18.1799  -43.8516   -7.5019 C   0  0  0  0  0  0  0  0  0  0  0  0
  -17.3930  -43.1920   -8.4345 C   0  0  0  0  0  0  0  0  0  0  0  0
  -17.4606  -43.5721   -9.8013 C   0  0  0  0  0  0  0  0  0  0  0  0
  -18.2750  -44.5732  -10.2734 C   0  0  0  0  0  0  0  0  0  0  0  0
  -18.3197  -45.0019  -11.9728 Cl  0  0  0  0  0  0  0  0  0  0  0  0
  -19.0048  -45.1704   -9.3528 N   0  0  0  0  0  0  0  0  0  0  0  0
  -16.4433  -42.0859   -8.2977 C   0  0  0  0  0  0  0  0  0  0  0  0
  -15.3120  -42.2521   -8.9417 O   0  0  0  0  0  0  0  0  0  0  0  0
  -16.5051  -40.8558   -7.6014 N   0  0  0  0  0  0  0  0  0  0  0  0
  -13.1447  -37.4749  -11.0092 C   0  0  0  0  0  0  0  0  0  0  0  0
  1  2  1  0
  2  3  1  0
  2  4  1  0
  2  5  1  0
  5  6  2  0
  6  7  1  0
  7  8  2  0
  8  9  1  0
  9 10  1  0
 10 11  1  0
 11 12  1  0
 12 13  1  0
 13 14  1  6
 13 15  1  0
 15 16  1  1
 16 17  1  0
 17 18  2  0
 18 19  1  0
 19 20  2  0
 20 21  1  0
 21 22  2  0
 21 23  1  0
 23 24  1  0
 24 25  1  0
 25 26  2  0
 26 27  1  0
 27 28  1  0
 28 29  1  0
 29 30  2  0
 30 31  1  0
 31 32  2  0
 32 33  1  0
 33 34  1  0
 33 35  2  0
 31 36  1  0
 36 37  2  0
 36 38  1  0
  9 39  2  0
 22 17  1  0
 35 29  1  0
 38 15  1  0
 39  5  1  0
M  END
$$$$
