
     RDKit          3D

 39 42  0  0  0  0  0  0  0  0999 V2000
  -10.6655  -35.2548  -12.5545 C   0  0  0  0  0  0  0  0  0  0  0  0
  -10.5047  -36.4779  -11.6718 C   0  0  0  0  0  0  0  0  0  0  0  0
   -9.1950  -37.1216  -12.0094 C   0  0  0  0  0  0  0  0  0  0  0  0
  -10.4410  -35.9595  -10.2306 C   0  0  0  0  0  0  0  0  0  0  0  0
  -11.6604  -37.3920  -11.8363 C   0  0  0  0  0  0  0  0  0  0  0  0
  -11.3837  -38.7050  -12.1518 C   0  0  0  0  0  0  0  0  0  0  0  0
  -12.4661  -39.5557  -12.3055 C   0  0  0  0  0  0  0  0  0  0  0  0
  -13.7338  -39.1312  -12.1561 N   0  0  0  0  0  0  0  0  0  0  0  0
  -14.0291  -37.8480  -11.8468 C   0  0  0  0  0  0  0  0  0  0  0  0
  -15.4465  -37.4889  -11.7065 C   0  0  0  0  0  0  0  0  0  0  0  0
  -16.1853  -38.4642  -10.9141 N   0  0  0  0  0  0  0  0  0  0  0  0
  -15.7595  -38.3394   -9.5423 C   0  0  0  0  0  0  0  0  0  0  0  0
  -16.8905  -38.1132   -8.6032 C   0  0  1  0  0  0  0  0  0  0  0  0
  -17.8627  -37.3261   -9.2131 O   0  0  0  0  0  0  0  0  0  0  0  0
  -17.5118  -39.3629   -8.0391 C   0  0  2  0  0  0  0  0  0  0  0  0
  -18.2372  -39.1701   -6.7448 C   0  0  0  0  0  0  0  0  0  0  0  0
  -19.7316  -39.2653   -6.8085 C   0  0  0  0  0  0  0  0  0  0  0  0
  -20.3126  -37.9972   -6.5442 C   0  0  0  0  0  0  0  0  0  0  0  0
  -21.6579  -37.7644   -6.5223 C   0  0  0  0  0  0  0  0  0  0  0  0
  -22.4446  -38.8606   -6.7780 C   0  0  0  0  0  0  0  0  0  0  0  0
  -21.9195  -40.1366   -7.0442 C   0  0  0  0  0  0  0  0  0  0  0  0
  -20.5418  -40.3381   -7.0605 C   0  0  0  0  0  0  0  0  0  0  0  0
  -22.9312  -41.0486   -7.2620 O   0  0  0  0  0  0  0  0  0  0  0  0
  -23.3984  -42.2312   -6.8065 C   0  0  0  0  0  0  0  0  0  0  0  0
  -22.4555  -43.2446   -6.1915 C   0  0  0  0  0  0  0  0  0  0  0  0
  -21.5792  -43.1850   -5.2596 C   0  0  0  0  0  0  0  0  0  0  0  0
  -20.6317  -44.1870   -4.6345 C   0  0  0  0  0  0  0  0  0  0  0  0
  -19.6648  -44.7301   -5.5135 N   0  0  0  0  0  0  0  0  0  0  0  0
  -18.8404  -44.1157   -6.5328 C   0  0  0  0  0  0  0  0  0  0  0  0
  -17.9949  -43.0413   -6.5112 C   0  0  0  0  0  0  0  0  0  0  0  0
  -17.3639  -42.7470   -7.7109 C   0  0  0  0  0  0  0  0  0  0  0  0
  -17.6210  -43.5514   -8.8528 C   0  0  0  0  0  0  0  0  0  0  0  0
  -18.4758  -44.6274   -8.8487 C   0  0  0  0  0  0  0  0  0  0  0  0
  -18.7574  -45.5874  -10.2885 Cl  0  0  0  0  0  0  0  0  0  0  0  0
  -19.0531  -44.8685   -7.6889 N   0  0  0  0  0  0  0  0  0  0  0  0
  -16.4257  -41.6856   -8.0817 C   0  0  0  0  0  0  0  0  0  0  0  0
  -15.3964  -42.0868   -8.7901 O   0  0  0  0  0  0  0  0  0  0  0  0
  -16.4098  -40.2940   -7.8265 N   0  0  0  0  0  0  0  0  0  0  0  0
  -12.9748  -36.9849  -11.6891 C   0  0  0  0  0  0  0  0  0  0  0  0
  1  2  1  0
  2  3  1  0
  2  4  1  0
  2  5  1  0
  5  6  2  0
  6  7  1  0
  7  8  2  0
  8  9  1  0
  9 10  1  0
 10 11  1  0
 11 12  1  0
 12 13  1  0
 13 14  1  6
 13 15  1  0
 15 16  1  1
 16 17  1  0
 17 18  2  0
 18 19  1  0
 19 20  2  0
 20 21  1  0
 21 22  2  0
 21 23  1  0
 23 24  1  0
 24 25  1  0
 25 26  2  0
 26 27  1  0
 27 28  1  0
 28 29  1  0
 29 30  2  0
 30 31  1  0
 31 32  2  0
 32 33  1  0
 33 34  1  0
 33 35  2  0
 31 36  1  0
 36 37  2  0
 36 38  1  0
  9 39  2  0
 22 17  1  0
 35 29  1  0
 38 15  1  0
 39  5  1  0
M  END
$$$$
