
     RDKit          3D

 39 42  0  0  0  0  0  0  0  0999 V2000
  -11.6681  -41.5007  -14.2240 C   0  0  0  0  0  0  0  0  0  0  0  0
  -11.9014  -41.5978  -12.7282 C   0  0  0  0  0  0  0  0  0  0  0  0
  -12.9176  -42.6719  -12.4885 C   0  0  0  0  0  0  0  0  0  0  0  0
  -10.5669  -42.0377  -12.1152 C   0  0  0  0  0  0  0  0  0  0  0  0
  -12.3074  -40.2814  -12.1800 C   0  0  0  0  0  0  0  0  0  0  0  0
  -12.3697  -39.2247  -13.0629 C   0  0  0  0  0  0  0  0  0  0  0  0
  -12.7486  -37.9963  -12.5468 C   0  0  0  0  0  0  0  0  0  0  0  0
  -13.0447  -37.8302  -11.2451 N   0  0  0  0  0  0  0  0  0  0  0  0
  -12.9904  -38.8522  -10.3608 C   0  0  0  0  0  0  0  0  0  0  0  0
  -13.3335  -38.5631   -8.9621 C   0  0  0  0  0  0  0  0  0  0  0  0
  -14.5267  -39.2797   -8.5289 N   0  0  0  0  0  0  0  0  0  0  0  0
  -15.6440  -38.3712   -8.6016 C   0  0  0  0  0  0  0  0  0  0  0  0
  -16.5966  -38.5335   -7.4709 C   0  0  1  0  0  0  0  0  0  0  0  0
  -17.3775  -37.3890   -7.3411 O   0  0  0  0  0  0  0  0  0  0  0  0
  -17.4730  -39.7552   -7.5446 C   0  0  2  0  0  0  0  0  0  0  0  0
  -18.4345  -39.9034   -6.4079 C   0  0  0  0  0  0  0  0  0  0  0  0
  -19.8792  -39.6753   -6.7353 C   0  0  0  0  0  0  0  0  0  0  0  0
  -20.3457  -38.5001   -6.0900 C   0  0  0  0  0  0  0  0  0  0  0  0
  -21.6250  -38.0326   -6.1883 C   0  0  0  0  0  0  0  0  0  0  0  0
  -22.4638  -38.7870   -6.9713 C   0  0  0  0  0  0  0  0  0  0  0  0
  -22.0520  -39.9580   -7.6302 C   0  0  0  0  0  0  0  0  0  0  0  0
  -20.7389  -40.4051   -7.5095 C   0  0  0  0  0  0  0  0  0  0  0  0
  -23.0947  -40.5140   -8.3418 O   0  0  0  0  0  0  0  0  0  0  0  0
  -23.7899  -41.6655   -8.4637 C   0  0  0  0  0  0  0  0  0  0  0  0
  -23.1341  -42.9956   -8.1556 C   0  0  0  0  0  0  0  0  0  0  0  0
  -22.4817  -43.4478   -7.1506 C   0  0  0  0  0  0  0  0  0  0  0  0
  -21.8222  -44.7719   -6.8281 C   0  0  0  0  0  0  0  0  0  0  0  0
  -20.7599  -45.1401   -7.6875 N   0  0  0  0  0  0  0  0  0  0  0  0
  -19.6646  -44.3738   -8.2436 C   0  0  0  0  0  0  0  0  0  0  0  0
  -18.7203  -43.5666   -7.6724 C   0  0  0  0  0  0  0  0  0  0  0  0
  -17.8117  -42.9896   -8.5473 C   0  0  0  0  0  0  0  0  0  0  0  0
  -17.9090  -43.2624   -9.9378 C   0  0  0  0  0  0  0  0  0  0  0  0
  -18.8680  -44.0785  -10.4878 C   0  0  0  0  0  0  0  0  0  0  0  0
  -18.9429  -44.3812  -12.2132 Cl  0  0  0  0  0  0  0  0  0  0  0  0
  -19.7095  -44.6031   -9.6198 N   0  0  0  0  0  0  0  0  0  0  0  0
  -16.6936  -42.0712   -8.3227 C   0  0  0  0  0  0  0  0  0  0  0  0
  -15.5909  -42.3834   -8.9621 O   0  0  0  0  0  0  0  0  0  0  0  0
  -16.5652  -40.8966   -7.5445 N   0  0  0  0  0  0  0  0  0  0  0  0
  -12.6178  -40.0796  -10.8466 C   0  0  0  0  0  0  0  0  0  0  0  0
  1  2  1  0
  2  3  1  0
  2  4  1  0
  2  5  1  0
  5  6  2  0
  6  7  1  0
  7  8  2  0
  8  9  1  0
  9 10  1  0
 10 11  1  0
 11 12  1  0
 12 13  1  0
 13 14  1  6
 13 15  1  0
 15 16  1  1
 16 17  1  0
 17 18  2  0
 18 19  1  0
 19 20  2  0
 20 21  1  0
 21 22  2  0
 21 23  1  0
 23 24  1  0
 24 25  1  0
 25 26  2  0
 26 27  1  0
 27 28  1  0
 28 29  1  0
 29 30  2  0
 30 31  1  0
 31 32  2  0
 32 33  1  0
 33 34  1  0
 33 35  2  0
 31 36  1  0
 36 37  2  0
 36 38  1  0
  9 39  2  0
 22 17  1  0
 35 29  1  0
 38 15  1  0
 39  5  1  0
M  END
$$$$
