
     RDKit          3D

 39 42  0  0  0  0  0  0  0  0999 V2000
  -12.8439  -34.8785  -13.7005 C   0  0  0  0  0  0  0  0  0  0  0  0
  -13.0920  -35.1360  -12.2263 C   0  0  0  0  0  0  0  0  0  0  0  0
  -12.1549  -34.2692  -11.4425 C   0  0  0  0  0  0  0  0  0  0  0  0
  -14.5297  -34.6821  -11.9492 C   0  0  0  0  0  0  0  0  0  0  0  0
  -12.9425  -36.5787  -11.9193 C   0  0  0  0  0  0  0  0  0  0  0  0
  -12.7161  -37.4275  -12.9816 C   0  0  0  0  0  0  0  0  0  0  0  0
  -12.5777  -38.7748  -12.6909 C   0  0  0  0  0  0  0  0  0  0  0  0
  -12.6588  -39.2451  -11.4331 N   0  0  0  0  0  0  0  0  0  0  0  0
  -12.8803  -38.4314  -10.3757 C   0  0  0  0  0  0  0  0  0  0  0  0
  -12.9512  -39.0472   -9.0441 C   0  0  0  0  0  0  0  0  0  0  0  0
  -14.0785  -38.5479   -8.2664 N   0  0  0  0  0  0  0  0  0  0  0  0
  -15.1728  -39.4738   -8.4214 C   0  0  0  0  0  0  0  0  0  0  0  0
  -16.4874  -38.8834   -8.0532 C   0  0  1  0  0  0  0  0  0  0  0  0
  -17.0568  -38.2654   -9.1624 O   0  0  0  0  0  0  0  0  0  0  0  0
  -17.4671  -39.8432   -7.4326 C   0  0  2  0  0  0  0  0  0  0  0  0
  -18.4791  -39.2075   -6.5325 C   0  0  0  0  0  0  0  0  0  0  0  0
  -19.8843  -39.1627   -7.0518 C   0  0  0  0  0  0  0  0  0  0  0  0
  -20.2662  -37.8200   -7.3096 C   0  0  0  0  0  0  0  0  0  0  0  0
  -21.4937  -37.4536   -7.7829 C   0  0  0  0  0  0  0  0  0  0  0  0
  -22.3679  -38.4896   -8.0025 C   0  0  0  0  0  0  0  0  0  0  0  0
  -22.0395  -39.8348   -7.7626 C   0  0  0  0  0  0  0  0  0  0  0  0
  -20.7774  -40.1730   -7.2814 C   0  0  0  0  0  0  0  0  0  0  0  0
  -23.1013  -40.6615   -8.0658 O   0  0  0  0  0  0  0  0  0  0  0  0
  -23.8926  -41.6049   -7.5110 C   0  0  0  0  0  0  0  0  0  0  0  0
  -23.3712  -42.4862   -6.3948 C   0  0  0  0  0  0  0  0  0  0  0  0
  -22.7996  -42.2478   -5.2740 C   0  0  0  0  0  0  0  0  0  0  0  0
  -22.2745  -43.1157   -4.1500 C   0  0  0  0  0  0  0  0  0  0  0  0
  -21.2190  -43.9883   -4.5063 N   0  0  0  0  0  0  0  0  0  0  0  0
  -20.0394  -43.7863   -5.3211 C   0  0  0  0  0  0  0  0  0  0  0  0
  -19.0476  -42.8454   -5.2909 C   0  0  0  0  0  0  0  0  0  0  0  0
  -18.0592  -42.9806   -6.2547 C   0  0  0  0  0  0  0  0  0  0  0  0
  -18.1297  -44.0523   -7.1839 C   0  0  0  0  0  0  0  0  0  0  0  0
  -19.1376  -44.9863   -7.1933 C   0  0  0  0  0  0  0  0  0  0  0  0
  -19.1761  -46.2904   -8.3646 Cl  0  0  0  0  0  0  0  0  0  0  0  0
  -20.0543  -44.8177   -6.2617 N   0  0  0  0  0  0  0  0  0  0  0  0
  -16.8718  -42.1761   -6.5497 C   0  0  0  0  0  0  0  0  0  0  0  0
  -15.7791  -42.8703   -6.7649 O   0  0  0  0  0  0  0  0  0  0  0  0
  -16.6666  -40.7800   -6.6527 N   0  0  0  0  0  0  0  0  0  0  0  0
  -13.0209  -37.0921  -10.6366 C   0  0  0  0  0  0  0  0  0  0  0  0
  1  2  1  0
  2  3  1  0
  2  4  1  0
  2  5  1  0
  5  6  2  0
  6  7  1  0
  7  8  2  0
  8  9  1  0
  9 10  1  0
 10 11  1  0
 11 12  1  0
 12 13  1  0
 13 14  1  6
 13 15  1  0
 15 16  1  1
 16 17  1  0
 17 18  2  0
 18 19  1  0
 19 20  2  0
 20 21  1  0
 21 22  2  0
 21 23  1  0
 23 24  1  0
 24 25  1  0
 25 26  2  0
 26 27  1  0
 27 28  1  0
 28 29  1  0
 29 30  2  0
 30 31  1  0
 31 32  2  0
 32 33  1  0
 33 34  1  0
 33 35  2  0
 31 36  1  0
 36 37  2  0
 36 38  1  0
  9 39  2  0
 22 17  1  0
 35 29  1  0
 38 15  1  0
 39  5  1  0
M  END
$$$$
