
     RDKit          3D

 39 42  0  0  0  0  0  0  0  0999 V2000
  -22.9140  -40.5950   -8.0415 C   0  0  0  0  0  0  0  0  0  0  0  0
  -23.2471  -42.0155   -7.6266 C   0  0  0  0  0  0  0  0  0  0  0  0
  -24.7373  -42.1656   -7.6502 C   0  0  0  0  0  0  0  0  0  0  0  0
  -22.6439  -42.9272   -8.7012 C   0  0  0  0  0  0  0  0  0  0  0  0
  -22.6535  -42.3221   -6.3030 C   0  0  0  0  0  0  0  0  0  0  0  0
  -23.2986  -43.2611   -5.5268 C   0  0  0  0  0  0  0  0  0  0  0  0
  -22.7414  -43.5443   -4.2906 C   0  0  0  0  0  0  0  0  0  0  0  0
  -21.6221  -42.9370   -3.8568 N   0  0  0  0  0  0  0  0  0  0  0  0
  -20.9725  -42.0131   -4.6008 C   0  0  0  0  0  0  0  0  0  0  0  0
  -19.7591  -41.4105   -4.0333 C   0  0  0  0  0  0  0  0  0  0  0  0
  -19.5098  -40.0746   -4.5609 N   0  0  0  0  0  0  0  0  0  0  0  0
  -18.1791  -40.0548   -5.1155 C   0  0  0  0  0  0  0  0  0  0  0  0
  -17.9345  -38.8781   -5.9918 C   0  0  1  0  0  0  0  0  0  0  0  0
  -16.6368  -38.4109   -5.8065 O   0  0  0  0  0  0  0  0  0  0  0  0
  -18.2012  -39.1057   -7.4557 C   0  0  2  0  0  0  0  0  0  0  0  0
  -18.8215  -37.9437   -8.1654 C   0  0  0  0  0  0  0  0  0  0  0  0
  -17.9366  -37.2148   -9.1308 C   0  0  0  0  0  0  0  0  0  0  0  0
  -17.6630  -35.9075   -8.6498 C   0  0  0  0  0  0  0  0  0  0  0  0
  -16.8905  -34.9972   -9.3127 C   0  0  0  0  0  0  0  0  0  0  0  0
  -16.3762  -35.4296  -10.5103 C   0  0  0  0  0  0  0  0  0  0  0  0
  -16.6178  -36.7124  -11.0308 C   0  0  0  0  0  0  0  0  0  0  0  0
  -17.4090  -37.6166  -10.3271 C   0  0  0  0  0  0  0  0  0  0  0  0
  -15.9838  -36.8777  -12.2446 O   0  0  0  0  0  0  0  0  0  0  0  0
  -16.2407  -37.1977  -13.5314 C   0  0  0  0  0  0  0  0  0  0  0  0
  -17.4034  -38.1034  -13.8807 C   0  0  0  0  0  0  0  0  0  0  0  0
  -18.6508  -38.0919  -13.5915 C   0  0  0  0  0  0  0  0  0  0  0  0
  -19.8229  -38.9874  -13.9328 C   0  0  0  0  0  0  0  0  0  0  0  0
  -19.7222  -40.3171  -13.4591 N   0  0  0  0  0  0  0  0  0  0  0  0
  -19.2797  -40.8534  -12.1892 C   0  0  0  0  0  0  0  0  0  0  0  0
  -19.6393  -40.5825  -10.8980 C   0  0  0  0  0  0  0  0  0  0  0  0
  -18.9810  -41.3166   -9.9225 C   0  0  0  0  0  0  0  0  0  0  0  0
  -18.0069  -42.2761  -10.3067 C   0  0  0  0  0  0  0  0  0  0  0  0
  -17.6632  -42.5306  -11.6127 C   0  0  0  0  0  0  0  0  0  0  0  0
  -16.4521  -43.7271  -12.0316 Cl  0  0  0  0  0  0  0  0  0  0  0  0
  -18.3126  -41.8094  -12.5042 N   0  0  0  0  0  0  0  0  0  0  0  0
  -19.0749  -41.2970   -8.4613 C   0  0  0  0  0  0  0  0  0  0  0  0
  -19.1303  -42.4818   -7.8997 O   0  0  0  0  0  0  0  0  0  0  0  0
  -19.1155  -40.2398   -7.5219 N   0  0  0  0  0  0  0  0  0  0  0  0
  -21.5039  -41.7144   -5.8296 C   0  0  0  0  0  0  0  0  0  0  0  0
  1  2  1  0
  2  3  1  0
  2  4  1  0
  2  5  1  0
  5  6  2  0
  6  7  1  0
  7  8  2  0
  8  9  1  0
  9 10  1  0
 10 11  1  0
 11 12  1  0
 12 13  1  0
 13 14  1  6
 13 15  1  0
 15 16  1  1
 16 17  1  0
 17 18  2  0
 18 19  1  0
 19 20  2  0
 20 21  1  0
 21 22  2  0
 21 23  1  0
 23 24  1  0
 24 25  1  0
 25 26  2  0
 26 27  1  0
 27 28  1  0
 28 29  1  0
 29 30  2  0
 30 31  1  0
 31 32  2  0
 32 33  1  0
 33 34  1  0
 33 35  2  0
 31 36  1  0
 36 37  2  0
 36 38  1  0
  9 39  2  0
 22 17  1  0
 35 29  1  0
 38 15  1  0
 39  5  1  0
M  END
$$$$
