
     RDKit          3D

 39 42  0  0  0  0  0  0  0  0999 V2000
  -22.8428  -43.0397   -1.9691 C   0  0  0  0  0  0  0  0  0  0  0  0
  -21.8031  -41.9606   -2.2053 C   0  0  0  0  0  0  0  0  0  0  0  0
  -22.0177  -40.8826   -1.1877 C   0  0  0  0  0  0  0  0  0  0  0  0
  -20.4413  -42.6157   -1.9482 C   0  0  0  0  0  0  0  0  0  0  0  0
  -21.8775  -41.4651   -3.6007 C   0  0  0  0  0  0  0  0  0  0  0  0
  -22.7279  -42.1285   -4.4591 C   0  0  0  0  0  0  0  0  0  0  0  0
  -22.7941  -41.6631   -5.7621 C   0  0  0  0  0  0  0  0  0  0  0  0
  -22.0664  -40.6125   -6.1821 N   0  0  0  0  0  0  0  0  0  0  0  0
  -21.2258  -39.9465   -5.3580 C   0  0  0  0  0  0  0  0  0  0  0  0
  -20.4776  -38.8130   -5.9174 C   0  0  0  0  0  0  0  0  0  0  0  0
  -19.4115  -39.2456   -6.8125 N   0  0  0  0  0  0  0  0  0  0  0  0
  -18.2710  -38.3910   -6.5941 C   0  0  0  0  0  0  0  0  0  0  0  0
  -17.8541  -37.6574   -7.8190 C   0  0  1  0  0  0  0  0  0  0  0  0
  -16.9652  -36.6408   -7.4830 O   0  0  0  0  0  0  0  0  0  0  0  0
  -17.2738  -38.5157   -8.9109 C   0  0  2  0  0  0  0  0  0  0  0  0
  -17.3078  -37.8997  -10.2740 C   0  0  0  0  0  0  0  0  0  0  0  0
  -15.9856  -37.4709  -10.8345 C   0  0  0  0  0  0  0  0  0  0  0  0
  -15.9347  -36.0558  -10.9358 C   0  0  0  0  0  0  0  0  0  0  0  0
  -14.8614  -35.3639  -11.4195 C   0  0  0  0  0  0  0  0  0  0  0  0
  -13.7986  -36.1376  -11.8166 C   0  0  0  0  0  0  0  0  0  0  0  0
  -13.7991  -37.5408  -11.7380 C   0  0  0  0  0  0  0  0  0  0  0  0
  -14.9104  -38.2142  -11.2375 C   0  0  0  0  0  0  0  0  0  0  0  0
  -12.6093  -38.0595  -12.2047 O   0  0  0  0  0  0  0  0  0  0  0  0
  -12.1263  -38.9252  -13.1220 C   0  0  0  0  0  0  0  0  0  0  0  0
  -12.9571  -40.1081  -13.5748 C   0  0  0  0  0  0  0  0  0  0  0  0
  -14.1489  -40.2298  -14.0271 C   0  0  0  0  0  0  0  0  0  0  0  0
  -14.9912  -41.4022  -14.4836 C   0  0  0  0  0  0  0  0  0  0  0  0
  -15.2669  -42.3690  -13.4876 N   0  0  0  0  0  0  0  0  0  0  0  0
  -15.6480  -42.2342  -12.0974 C   0  0  0  0  0  0  0  0  0  0  0  0
  -16.6466  -41.5344  -11.4787 C   0  0  0  0  0  0  0  0  0  0  0  0
  -16.6992  -41.6531  -10.0976 C   0  0  0  0  0  0  0  0  0  0  0  0
  -15.7477  -42.4681   -9.4285 C   0  0  0  0  0  0  0  0  0  0  0  0
  -14.7529  -43.1625  -10.0738 C   0  0  0  0  0  0  0  0  0  0  0  0
  -13.6030  -44.1548   -9.1979 Cl  0  0  0  0  0  0  0  0  0  0  0  0
  -14.7407  -43.0189  -11.3838 N   0  0  0  0  0  0  0  0  0  0  0  0
  -17.5908  -41.0533   -9.1030 C   0  0  0  0  0  0  0  0  0  0  0  0
  -18.0345  -41.8865   -8.1914 O   0  0  0  0  0  0  0  0  0  0  0  0
  -18.0735  -39.7351   -8.9259 N   0  0  0  0  0  0  0  0  0  0  0  0
  -21.1418  -40.3876   -4.0619 C   0  0  0  0  0  0  0  0  0  0  0  0
  1  2  1  0
  2  3  1  0
  2  4  1  0
  2  5  1  0
  5  6  2  0
  6  7  1  0
  7  8  2  0
  8  9  1  0
  9 10  1  0
 10 11  1  0
 11 12  1  0
 12 13  1  0
 13 14  1  1
 13 15  1  0
 15 16  1  6
 16 17  1  0
 17 18  2  0
 18 19  1  0
 19 20  2  0
 20 21  1  0
 21 22  2  0
 21 23  1  0
 23 24  1  0
 24 25  1  0
 25 26  2  0
 26 27  1  0
 27 28  1  0
 28 29  1  0
 29 30  2  0
 30 31  1  0
 31 32  2  0
 32 33  1  0
 33 34  1  0
 33 35  2  0
 31 36  1  0
 36 37  2  0
 36 38  1  0
  9 39  2  0
 22 17  1  0
 35 29  1  0
 38 15  1  0
 39  5  1  0
M  END
$$$$
