
     RDKit          3D

 39 42  0  0  0  0  0  0  0  0999 V2000
  -12.6098  -35.1544  -12.8825 C   0  0  0  0  0  0  0  0  0  0  0  0
  -11.4447  -36.0087  -12.4201 C   0  0  0  0  0  0  0  0  0  0  0  0
  -10.4250  -36.0311  -13.5171 C   0  0  0  0  0  0  0  0  0  0  0  0
  -10.8446  -35.2917  -11.2054 C   0  0  0  0  0  0  0  0  0  0  0  0
  -11.9139  -37.3616  -12.0357 C   0  0  0  0  0  0  0  0  0  0  0  0
  -10.9718  -38.3672  -11.9999 C   0  0  0  0  0  0  0  0  0  0  0  0
  -11.4141  -39.6300  -11.6411 C   0  0  0  0  0  0  0  0  0  0  0  0
  -12.7018  -39.8756  -11.3393 N   0  0  0  0  0  0  0  0  0  0  0  0
  -13.6432  -38.9049  -11.3677 C   0  0  0  0  0  0  0  0  0  0  0  0
  -15.0204  -39.2798  -11.0206 C   0  0  0  0  0  0  0  0  0  0  0  0
  -15.4333  -38.7288   -9.7357 N   0  0  0  0  0  0  0  0  0  0  0  0
  -16.8722  -38.6370   -9.7310 C   0  0  0  0  0  0  0  0  0  0  0  0
  -17.4312  -38.3753   -8.3778 C   0  0  1  0  0  0  0  0  0  0  0  0
  -18.3787  -37.3582   -8.4450 O   0  0  0  0  0  0  0  0  0  0  0  0
  -18.0087  -39.5786   -7.6817 C   0  0  2  0  0  0  0  0  0  0  0  0
  -18.5466  -39.3092   -6.3118 C   0  0  0  0  0  0  0  0  0  0  0  0
  -20.0381  -39.3527   -6.1712 C   0  0  0  0  0  0  0  0  0  0  0  0
  -20.5391  -38.0551   -5.8873 C   0  0  0  0  0  0  0  0  0  0  0  0
  -21.8614  -37.7731   -5.6962 C   0  0  0  0  0  0  0  0  0  0  0  0
  -22.7085  -38.8493   -5.7964 C   0  0  0  0  0  0  0  0  0  0  0  0
  -22.2633  -40.1530   -6.0743 C   0  0  0  0  0  0  0  0  0  0  0  0
  -20.9073  -40.4045   -6.2656 C   0  0  0  0  0  0  0  0  0  0  0  0
  -23.3225  -41.0356   -6.1151 O   0  0  0  0  0  0  0  0  0  0  0  0
  -23.7599  -42.1817   -5.5500 C   0  0  0  0  0  0  0  0  0  0  0  0
  -22.7741  -43.2037   -5.0226 C   0  0  0  0  0  0  0  0  0  0  0  0
  -21.7787  -43.1393   -4.2196 C   0  0  0  0  0  0  0  0  0  0  0  0
  -20.7866  -44.1496   -3.6835 C   0  0  0  0  0  0  0  0  0  0  0  0
  -19.9641  -44.7614   -4.6590 N   0  0  0  0  0  0  0  0  0  0  0  0
  -19.2664  -44.2176   -5.8052 C   0  0  0  0  0  0  0  0  0  0  0  0
  -18.3933  -43.1744   -5.9437 C   0  0  0  0  0  0  0  0  0  0  0  0
  -17.9212  -42.9503   -7.2286 C   0  0  0  0  0  0  0  0  0  0  0  0
  -18.3545  -43.7891   -8.2896 C   0  0  0  0  0  0  0  0  0  0  0  0
  -19.2333  -44.8325   -8.1244 C   0  0  0  0  0  0  0  0  0  0  0  0
  -19.7358  -45.8375   -9.4704 Cl  0  0  0  0  0  0  0  0  0  0  0  0
  -19.6560  -45.0070   -6.8885 N   0  0  0  0  0  0  0  0  0  0  0  0
  -17.0096  -41.9390   -7.7674 C   0  0  0  0  0  0  0  0  0  0  0  0
  -16.0981  -42.4045   -8.5886 O   0  0  0  0  0  0  0  0  0  0  0  0
  -16.9170  -40.5399   -7.5776 N   0  0  0  0  0  0  0  0  0  0  0  0
  -13.2311  -37.6450  -11.7201 C   0  0  0  0  0  0  0  0  0  0  0  0
  1  2  1  0
  2  3  1  0
  2  4  1  0
  2  5  1  0
  5  6  2  0
  6  7  1  0
  7  8  2  0
  8  9  1  0
  9 10  1  0
 10 11  1  0
 11 12  1  0
 12 13  1  0
 13 14  1  6
 13 15  1  0
 15 16  1  1
 16 17  1  0
 17 18  2  0
 18 19  1  0
 19 20  2  0
 20 21  1  0
 21 22  2  0
 21 23  1  0
 23 24  1  0
 24 25  1  0
 25 26  2  0
 26 27  1  0
 27 28  1  0
 28 29  1  0
 29 30  2  0
 30 31  1  0
 31 32  2  0
 32 33  1  0
 33 34  1  0
 33 35  2  0
 31 36  1  0
 36 37  2  0
 36 38  1  0
  9 39  2  0
 22 17  1  0
 35 29  1  0
 38 15  1  0
 39  5  1  0
M  END
$$$$
