
     RDKit          3D

 39 42  0  0  0  0  0  0  0  0999 V2000
  -14.7191  -35.8140  -14.1828 C   0  0  0  0  0  0  0  0  0  0  0  0
  -13.3185  -36.2265  -13.7718 C   0  0  0  0  0  0  0  0  0  0  0  0
  -12.4567  -36.2180  -14.9970 C   0  0  0  0  0  0  0  0  0  0  0  0
  -12.8181  -35.1418  -12.8110 C   0  0  0  0  0  0  0  0  0  0  0  0
  -13.3445  -37.5424  -13.0893 C   0  0  0  0  0  0  0  0  0  0  0  0
  -12.7869  -38.6098  -13.7601 C   0  0  0  0  0  0  0  0  0  0  0  0
  -12.8138  -39.8378  -13.1196 C   0  0  0  0  0  0  0  0  0  0  0  0
  -13.3566  -39.9936  -11.8986 N   0  0  0  0  0  0  0  0  0  0  0  0
  -13.9092  -38.9611  -11.2219 C   0  0  0  0  0  0  0  0  0  0  0  0
  -14.4745  -39.2396   -9.8951 C   0  0  0  0  0  0  0  0  0  0  0  0
  -15.9273  -39.3545   -9.9291 N   0  0  0  0  0  0  0  0  0  0  0  0
  -16.4770  -38.3150   -9.0948 C   0  0  0  0  0  0  0  0  0  0  0  0
  -16.5284  -38.6930   -7.6572 C   0  0  1  0  0  0  0  0  0  0  0  0
  -17.0767  -37.6528   -6.9130 O   0  0  0  0  0  0  0  0  0  0  0  0
  -17.2495  -39.9807   -7.3609 C   0  0  2  0  0  0  0  0  0  0  0  0
  -18.0098  -39.9885   -6.0723 C   0  0  0  0  0  0  0  0  0  0  0  0
  -19.5036  -39.9646   -6.1905 C   0  0  0  0  0  0  0  0  0  0  0  0
  -20.0118  -38.7328   -5.7007 C   0  0  0  0  0  0  0  0  0  0  0  0
  -21.3394  -38.4146   -5.6680 C   0  0  0  0  0  0  0  0  0  0  0  0
  -22.1844  -39.3838   -6.1502 C   0  0  0  0  0  0  0  0  0  0  0  0
  -21.7323  -40.6191   -6.6448 C   0  0  0  0  0  0  0  0  0  0  0  0
  -20.3708  -40.9099   -6.6652 C   0  0  0  0  0  0  0  0  0  0  0  0
  -22.7913  -41.3994   -7.0600 O   0  0  0  0  0  0  0  0  0  0  0  0
  -23.3503  -42.6114   -6.8533 C   0  0  0  0  0  0  0  0  0  0  0  0
  -22.4984  -43.7873   -6.4224 C   0  0  0  0  0  0  0  0  0  0  0  0
  -21.6561  -43.9686   -5.4749 C   0  0  0  0  0  0  0  0  0  0  0  0
  -20.7992  -45.1355   -5.0317 C   0  0  0  0  0  0  0  0  0  0  0  0
  -19.8363  -45.5672   -5.9746 N   0  0  0  0  0  0  0  0  0  0  0  0
  -18.9361  -44.8287   -6.8351 C   0  0  0  0  0  0  0  0  0  0  0  0
  -18.0249  -43.8402   -6.5851 C   0  0  0  0  0  0  0  0  0  0  0  0
  -17.3312  -43.3670   -7.6892 C   0  0  0  0  0  0  0  0  0  0  0  0
  -17.5957  -43.9184   -8.9710 C   0  0  0  0  0  0  0  0  0  0  0  0
  -18.5171  -44.9127   -9.1963 C   0  0  0  0  0  0  0  0  0  0  0  0
  -18.8047  -45.5577  -10.8011 Cl  0  0  0  0  0  0  0  0  0  0  0  0
  -19.1525  -45.3299   -8.1198 N   0  0  0  0  0  0  0  0  0  0  0  0
  -16.3135  -42.3229   -7.8243 C   0  0  0  0  0  0  0  0  0  0  0  0
  -15.2859  -42.6525   -8.5709 O   0  0  0  0  0  0  0  0  0  0  0  0
  -16.2183  -41.0103   -7.3047 N   0  0  0  0  0  0  0  0  0  0  0  0
  -13.8954  -37.7339  -11.8344 C   0  0  0  0  0  0  0  0  0  0  0  0
  1  2  1  0
  2  3  1  0
  2  4  1  0
  2  5  1  0
  5  6  2  0
  6  7  1  0
  7  8  2  0
  8  9  1  0
  9 10  1  0
 10 11  1  0
 11 12  1  0
 12 13  1  0
 13 14  1  1
 13 15  1  0
 15 16  1  1
 16 17  1  0
 17 18  2  0
 18 19  1  0
 19 20  2  0
 20 21  1  0
 21 22  2  0
 21 23  1  0
 23 24  1  0
 24 25  1  0
 25 26  2  0
 26 27  1  0
 27 28  1  0
 28 29  1  0
 29 30  2  0
 30 31  1  0
 31 32  2  0
 32 33  1  0
 33 34  1  0
 33 35  2  0
 31 36  1  0
 36 37  2  0
 36 38  1  0
  9 39  2  0
 22 17  1  0
 35 29  1  0
 38 15  1  0
 39  5  1  0
M  END
$$$$
