
     RDKit          3D

 39 42  0  0  0  0  0  0  0  0999 V2000
  -24.5230  -40.1622   -7.6108 C   0  0  0  0  0  0  0  0  0  0  0  0
  -23.0156  -40.3024   -7.7054 C   0  0  0  0  0  0  0  0  0  0  0  0
  -22.7113  -41.2953   -8.7849 C   0  0  0  0  0  0  0  0  0  0  0  0
  -22.4848  -38.9301   -8.1355 C   0  0  0  0  0  0  0  0  0  0  0  0
  -22.4464  -40.6820   -6.3900 C   0  0  0  0  0  0  0  0  0  0  0  0
  -23.2910  -41.3029   -5.4949 C   0  0  0  0  0  0  0  0  0  0  0  0
  -22.7558  -41.6554   -4.2668 C   0  0  0  0  0  0  0  0  0  0  0  0
  -21.4717  -41.4081   -3.9510 N   0  0  0  0  0  0  0  0  0  0  0  0
  -20.6250  -40.8003   -4.8129 C   0  0  0  0  0  0  0  0  0  0  0  0
  -19.2428  -40.5774   -4.3685 C   0  0  0  0  0  0  0  0  0  0  0  0
  -18.2816  -40.7570   -5.4496 N   0  0  0  0  0  0  0  0  0  0  0  0
  -17.3915  -39.6227   -5.4485 C   0  0  0  0  0  0  0  0  0  0  0  0
  -17.5988  -38.7229   -6.6145 C   0  0  1  0  0  0  0  0  0  0  0  0
  -17.0849  -37.4601   -6.3359 O   0  0  0  0  0  0  0  0  0  0  0  0
  -17.0483  -39.2319   -7.9198 C   0  0  2  0  0  0  0  0  0  0  0  0
  -17.7266  -38.6888   -9.1378 C   0  0  0  0  0  0  0  0  0  0  0  0
  -16.9300  -37.7176   -9.9555 C   0  0  0  0  0  0  0  0  0  0  0  0
  -17.5130  -36.4253   -9.8821 C   0  0  0  0  0  0  0  0  0  0  0  0
  -17.0198  -35.3284  -10.5289 C   0  0  0  0  0  0  0  0  0  0  0  0
  -15.8918  -35.5511  -11.2797 C   0  0  0  0  0  0  0  0  0  0  0  0
  -15.2771  -36.8104  -11.3860 C   0  0  0  0  0  0  0  0  0  0  0  0
  -15.8059  -37.9076  -10.7112 C   0  0  0  0  0  0  0  0  0  0  0  0
  -14.1674  -36.7481  -12.2029 O   0  0  0  0  0  0  0  0  0  0  0  0
  -13.6477  -37.3075  -13.3170 C   0  0  0  0  0  0  0  0  0  0  0  0
  -13.9918  -38.7338  -13.6931 C   0  0  0  0  0  0  0  0  0  0  0  0
  -15.0947  -39.3678  -13.8395 C   0  0  0  0  0  0  0  0  0  0  0  0
  -15.4542  -40.7899  -14.2149 C   0  0  0  0  0  0  0  0  0  0  0  0
  -14.9989  -41.7830  -13.3155 N   0  0  0  0  0  0  0  0  0  0  0  0
  -14.9873  -41.8362  -11.8687 C   0  0  0  0  0  0  0  0  0  0  0  0
  -15.9656  -41.6522  -10.9313 C   0  0  0  0  0  0  0  0  0  0  0  0
  -15.5669  -41.7876   -9.6096 C   0  0  0  0  0  0  0  0  0  0  0  0
  -14.2132  -42.1010   -9.3156 C   0  0  0  0  0  0  0  0  0  0  0  0
  -13.2479  -42.2816  -10.2768 C   0  0  0  0  0  0  0  0  0  0  0  0
  -11.5896  -42.6673   -9.8580 Cl  0  0  0  0  0  0  0  0  0  0  0  0
  -13.6717  -42.1422  -11.5169 N   0  0  0  0  0  0  0  0  0  0  0  0
  -16.3037  -41.6476   -8.3520 C   0  0  0  0  0  0  0  0  0  0  0  0
  -16.0734  -42.5948   -7.4735 O   0  0  0  0  0  0  0  0  0  0  0  0
  -17.2254  -40.6791   -7.8889 N   0  0  0  0  0  0  0  0  0  0  0  0
  -21.1304  -40.4410   -6.0364 C   0  0  0  0  0  0  0  0  0  0  0  0
  1  2  1  0
  2  3  1  0
  2  4  1  0
  2  5  1  0
  5  6  2  0
  6  7  1  0
  7  8  2  0
  8  9  1  0
  9 10  1  0
 10 11  1  0
 11 12  1  0
 12 13  1  0
 13 14  1  1
 13 15  1  0
 15 16  1  6
 16 17  1  0
 17 18  2  0
 18 19  1  0
 19 20  2  0
 20 21  1  0
 21 22  2  0
 21 23  1  0
 23 24  1  0
 24 25  1  0
 25 26  2  0
 26 27  1  0
 27 28  1  0
 28 29  1  0
 29 30  2  0
 30 31  1  0
 31 32  2  0
 32 33  1  0
 33 34  1  0
 33 35  2  0
 31 36  1  0
 36 37  2  0
 36 38  1  0
  9 39  2  0
 22 17  1  0
 35 29  1  0
 38 15  1  0
 39  5  1  0
M  END
$$$$
