
     RDKit          3D

 39 42  0  0  0  0  0  0  0  0999 V2000
  -23.8207  -40.5260   -5.1429 C   0  0  0  0  0  0  0  0  0  0  0  0
  -22.8419  -40.0860   -6.2150 C   0  0  0  0  0  0  0  0  0  0  0  0
  -23.6186  -39.8204   -7.4680 C   0  0  0  0  0  0  0  0  0  0  0  0
  -22.2345  -38.7670   -5.7239 C   0  0  0  0  0  0  0  0  0  0  0  0
  -21.7785  -41.1033   -6.3957 C   0  0  0  0  0  0  0  0  0  0  0  0
  -22.1137  -42.2471   -7.0884 C   0  0  0  0  0  0  0  0  0  0  0  0
  -21.1178  -43.1955   -7.2544 C   0  0  0  0  0  0  0  0  0  0  0  0
  -19.8766  -43.0194   -6.7665 N   0  0  0  0  0  0  0  0  0  0  0  0
  -19.5252  -41.9058   -6.0840 C   0  0  0  0  0  0  0  0  0  0  0  0
  -18.1435  -41.8135   -5.5939 C   0  0  0  0  0  0  0  0  0  0  0  0
  -17.8679  -40.5279   -4.9644 N   0  0  0  0  0  0  0  0  0  0  0  0
  -18.5763  -39.5098   -5.6994 C   0  0  0  0  0  0  0  0  0  0  0  0
  -17.6764  -38.6567   -6.5208 C   0  0  1  0  0  0  0  0  0  0  0  0
  -16.4151  -38.5978   -5.9359 O   0  0  0  0  0  0  0  0  0  0  0  0
  -17.5607  -39.0578   -7.9670 C   0  0  2  0  0  0  0  0  0  0  0  0
  -18.0257  -38.0219   -8.9414 C   0  0  0  0  0  0  0  0  0  0  0  0
  -16.9548  -37.3457   -9.7426 C   0  0  0  0  0  0  0  0  0  0  0  0
  -16.8572  -35.9791   -9.3709 C   0  0  0  0  0  0  0  0  0  0  0  0
  -15.9771  -35.0975   -9.9303 C   0  0  0  0  0  0  0  0  0  0  0  0
  -15.1648  -35.6224  -10.9052 C   0  0  0  0  0  0  0  0  0  0  0  0
  -15.2223  -36.9670  -11.3101 C   0  0  0  0  0  0  0  0  0  0  0  0
  -16.1310  -37.8393  -10.7167 C   0  0  0  0  0  0  0  0  0  0  0  0
  -14.2997  -37.2208  -12.3036 O   0  0  0  0  0  0  0  0  0  0  0  0
  -14.2154  -37.6939  -13.5658 C   0  0  0  0  0  0  0  0  0  0  0  0
  -15.2206  -38.7056  -14.0762 C   0  0  0  0  0  0  0  0  0  0  0  0
  -16.5003  -38.7438  -14.1034 C   0  0  0  0  0  0  0  0  0  0  0  0
  -17.5170  -39.7451  -14.6095 C   0  0  0  0  0  0  0  0  0  0  0  0
  -17.4897  -41.0065  -13.9686 N   0  0  0  0  0  0  0  0  0  0  0  0
  -17.3593  -41.3727  -12.5740 C   0  0  0  0  0  0  0  0  0  0  0  0
  -18.0395  -40.9878  -11.4519 C   0  0  0  0  0  0  0  0  0  0  0  0
  -17.6196  -41.5681  -10.2641 C   0  0  0  0  0  0  0  0  0  0  0  0
  -16.5464  -42.4983  -10.2805 C   0  0  0  0  0  0  0  0  0  0  0  0
  -15.8786  -42.8694  -11.4227 C   0  0  0  0  0  0  0  0  0  0  0  0
  -14.5588  -44.0231  -11.3861 Cl  0  0  0  0  0  0  0  0  0  0  0  0
  -16.3103  -42.2924  -12.5260 N   0  0  0  0  0  0  0  0  0  0  0  0
  -18.0759  -41.3970   -8.8833 C   0  0  0  0  0  0  0  0  0  0  0  0
  -18.2271  -42.5152   -8.2134 O   0  0  0  0  0  0  0  0  0  0  0  0
  -18.3881  -40.2493   -8.1168 N   0  0  0  0  0  0  0  0  0  0  0  0
  -20.4934  -40.9507   -5.9057 C   0  0  0  0  0  0  0  0  0  0  0  0
  1  2  1  0
  2  3  1  0
  2  4  1  0
  2  5  1  0
  5  6  2  0
  6  7  1  0
  7  8  2  0
  8  9  1  0
  9 10  1  0
 10 11  1  0
 11 12  1  0
 12 13  1  0
 13 14  1  1
 13 15  1  0
 15 16  1  6
 16 17  1  0
 17 18  2  0
 18 19  1  0
 19 20  2  0
 20 21  1  0
 21 22  2  0
 21 23  1  0
 23 24  1  0
 24 25  1  0
 25 26  2  0
 26 27  1  0
 27 28  1  0
 28 29  1  0
 29 30  2  0
 30 31  1  0
 31 32  2  0
 32 33  1  0
 33 34  1  0
 33 35  2  0
 31 36  1  0
 36 37  2  0
 36 38  1  0
  9 39  2  0
 22 17  1  0
 35 29  1  0
 38 15  1  0
 39  5  1  0
M  END
$$$$
