
     RDKit          3D

 39 42  0  0  0  0  0  0  0  0999 V2000
  -21.6619  -41.6718   -0.6625 C   0  0  0  0  0  0  0  0  0  0  0  0
  -21.1698  -40.5903   -1.6054 C   0  0  0  0  0  0  0  0  0  0  0  0
  -21.4783  -39.2621   -0.9853 C   0  0  0  0  0  0  0  0  0  0  0  0
  -19.6478  -40.7537   -1.6862 C   0  0  0  0  0  0  0  0  0  0  0  0
  -21.7747  -40.7585   -2.9486 C   0  0  0  0  0  0  0  0  0  0  0  0
  -22.7129  -41.7578   -3.0951 C   0  0  0  0  0  0  0  0  0  0  0  0
  -23.2751  -41.9124   -4.3516 C   0  0  0  0  0  0  0  0  0  0  0  0
  -22.9292  -41.1290   -5.3891 N   0  0  0  0  0  0  0  0  0  0  0  0
  -22.0114  -40.1428   -5.2688 C   0  0  0  0  0  0  0  0  0  0  0  0
  -21.7063  -39.3454   -6.4641 C   0  0  0  0  0  0  0  0  0  0  0  0
  -20.4101  -39.6869   -7.0371 N   0  0  0  0  0  0  0  0  0  0  0  0
  -19.4944  -38.6133   -6.7411 C   0  0  0  0  0  0  0  0  0  0  0  0
  -19.0627  -37.8694   -7.9546 C   0  0  1  0  0  0  0  0  0  0  0  0
  -18.3475  -36.7343   -7.5852 O   0  0  0  0  0  0  0  0  0  0  0  0
  -18.2770  -38.6770   -8.9529 C   0  0  2  0  0  0  0  0  0  0  0  0
  -18.2349  -38.0962  -10.3311 C   0  0  0  0  0  0  0  0  0  0  0  0
  -16.9170  -37.5298  -10.7654 C   0  0  0  0  0  0  0  0  0  0  0  0
  -17.0146  -36.1205  -10.9059 C   0  0  0  0  0  0  0  0  0  0  0  0
  -15.9804  -35.3196  -11.2980 C   0  0  0  0  0  0  0  0  0  0  0  0
  -14.8014  -35.9739  -11.5582 C   0  0  0  0  0  0  0  0  0  0  0  0
  -14.6529  -37.3660  -11.4354 C   0  0  0  0  0  0  0  0  0  0  0  0
  -15.7285  -38.1524  -11.0312 C   0  0  0  0  0  0  0  0  0  0  0  0
  -13.3696  -37.7538  -11.7599 O   0  0  0  0  0  0  0  0  0  0  0  0
  -12.6979  -38.5764  -12.5944 C   0  0  0  0  0  0  0  0  0  0  0  0
  -13.3379  -39.8556  -13.0926 C   0  0  0  0  0  0  0  0  0  0  0  0
  -14.4537  -40.1225  -13.6615 C   0  0  0  0  0  0  0  0  0  0  0  0
  -15.1059  -41.3927  -14.1649 C   0  0  0  0  0  0  0  0  0  0  0  0
  -15.3757  -42.3647  -13.1724 N   0  0  0  0  0  0  0  0  0  0  0  0
  -15.9152  -42.2469  -11.8341 C   0  0  0  0  0  0  0  0  0  0  0  0
  -17.0460  -41.6542  -11.3444 C   0  0  0  0  0  0  0  0  0  0  0  0
  -17.2314  -41.7506   -9.9731 C   0  0  0  0  0  0  0  0  0  0  0  0
  -16.2711  -42.4374   -9.1837 C   0  0  0  0  0  0  0  0  0  0  0  0
  -15.1417  -43.0257   -9.7002 C   0  0  0  0  0  0  0  0  0  0  0  0
  -13.9875  -43.8617   -8.6790 Cl  0  0  0  0  0  0  0  0  0  0  0  0
  -15.0066  -42.9079  -11.0058 N   0  0  0  0  0  0  0  0  0  0  0  0
  -18.2853  -41.2375   -9.0956 C   0  0  0  0  0  0  0  0  0  0  0  0
  -18.7271  -42.0978   -8.2086 O   0  0  0  0  0  0  0  0  0  0  0  0
  -18.9288  -39.9802   -9.0114 N   0  0  0  0  0  0  0  0  0  0  0  0
  -21.4394  -39.9688   -4.0344 C   0  0  0  0  0  0  0  0  0  0  0  0
  1  2  1  0
  2  3  1  0
  2  4  1  0
  2  5  1  0
  5  6  2  0
  6  7  1  0
  7  8  2  0
  8  9  1  0
  9 10  1  0
 10 11  1  0
 11 12  1  0
 12 13  1  0
 13 14  1  1
 13 15  1  0
 15 16  1  6
 16 17  1  0
 17 18  2  0
 18 19  1  0
 19 20  2  0
 20 21  1  0
 21 22  2  0
 21 23  1  0
 23 24  1  0
 24 25  1  0
 25 26  2  0
 26 27  1  0
 27 28  1  0
 28 29  1  0
 29 30  2  0
 30 31  1  0
 31 32  2  0
 32 33  1  0
 33 34  1  0
 33 35  2  0
 31 36  1  0
 36 37  2  0
 36 38  1  0
  9 39  2  0
 22 17  1  0
 35 29  1  0
 38 15  1  0
 39  5  1  0
M  END
$$$$
