
     RDKit          3D

 39 42  0  0  0  0  0  0  0  0999 V2000
  -23.5260  -41.3118   -4.0602 C   0  0  0  0  0  0  0  0  0  0  0  0
  -22.6477  -41.6395   -5.2528 C   0  0  0  0  0  0  0  0  0  0  0  0
  -21.6044  -42.6157   -4.8031 C   0  0  0  0  0  0  0  0  0  0  0  0
  -23.5570  -42.3284   -6.2768 C   0  0  0  0  0  0  0  0  0  0  0  0
  -22.0734  -40.4005   -5.8301 C   0  0  0  0  0  0  0  0  0  0  0  0
  -22.9222  -39.3250   -5.9813 C   0  0  0  0  0  0  0  0  0  0  0  0
  -22.3821  -38.1695   -6.5217 C   0  0  0  0  0  0  0  0  0  0  0  0
  -21.0897  -38.0889   -6.8860 N   0  0  0  0  0  0  0  0  0  0  0  0
  -20.2387  -39.1309   -6.7470 C   0  0  0  0  0  0  0  0  0  0  0  0
  -18.8472  -38.9374   -7.1761 C   0  0  0  0  0  0  0  0  0  0  0  0
  -17.9005  -39.6021   -6.2891 N   0  0  0  0  0  0  0  0  0  0  0  0
  -16.6477  -38.8921   -6.3606 C   0  0  0  0  0  0  0  0  0  0  0  0
  -16.4810  -38.1385   -7.6321 C   0  0  1  0  0  0  0  0  0  0  0  0
  -15.5316  -37.1346   -7.4670 O   0  0  0  0  0  0  0  0  0  0  0  0
  -16.1441  -38.9802   -8.8338 C   0  0  2  0  0  0  0  0  0  0  0  0
  -16.1790  -38.2483  -10.1383 C   0  0  0  0  0  0  0  0  0  0  0  0
  -14.8511  -37.9949  -10.7853 C   0  0  0  0  0  0  0  0  0  0  0  0
  -14.5663  -36.6041  -10.7854 C   0  0  0  0  0  0  0  0  0  0  0  0
  -13.4316  -36.0580  -11.3135 C   0  0  0  0  0  0  0  0  0  0  0  0
  -12.5518  -36.9576  -11.8635 C   0  0  0  0  0  0  0  0  0  0  0  0
  -12.7869  -38.3429  -11.8897 C   0  0  0  0  0  0  0  0  0  0  0  0
  -13.9543  -38.8661  -11.3401 C   0  0  0  0  0  0  0  0  0  0  0  0
  -11.7440  -39.0068  -12.5017 O   0  0  0  0  0  0  0  0  0  0  0  0
  -11.4904  -39.8552  -13.5215 C   0  0  0  0  0  0  0  0  0  0  0  0
  -12.5447  -40.8403  -13.9821 C   0  0  0  0  0  0  0  0  0  0  0  0
  -13.7716  -40.7237  -14.3301 C   0  0  0  0  0  0  0  0  0  0  0  0
  -14.8357  -41.6963  -14.7926 C   0  0  0  0  0  0  0  0  0  0  0  0
  -15.1940  -42.6892  -13.8500 N   0  0  0  0  0  0  0  0  0  0  0  0
  -15.4359  -42.6175  -12.4244 C   0  0  0  0  0  0  0  0  0  0  0  0
  -16.2479  -41.8207  -11.6657 C   0  0  0  0  0  0  0  0  0  0  0  0
  -16.2113  -42.0514  -10.2983 C   0  0  0  0  0  0  0  0  0  0  0  0
  -15.3642  -43.0679   -9.7825 C   0  0  0  0  0  0  0  0  0  0  0  0
  -14.5570  -43.8564  -10.5668 C   0  0  0  0  0  0  0  0  0  0  0  0
  -13.5292  -45.0982   -9.8771 Cl  0  0  0  0  0  0  0  0  0  0  0  0
  -14.6234  -43.6011  -11.8579 N   0  0  0  0  0  0  0  0  0  0  0  0
  -16.9059  -41.4038   -9.1837 C   0  0  0  0  0  0  0  0  0  0  0  0
  -17.4128  -42.2303   -8.2994 O   0  0  0  0  0  0  0  0  0  0  0  0
  -17.1398  -40.0452   -8.8653 N   0  0  0  0  0  0  0  0  0  0  0  0
  -20.7487  -40.2873   -6.2141 C   0  0  0  0  0  0  0  0  0  0  0  0
  1  2  1  0
  2  3  1  0
  2  4  1  0
  2  5  1  0
  5  6  2  0
  6  7  1  0
  7  8  2  0
  8  9  1  0
  9 10  1  0
 10 11  1  0
 11 12  1  0
 12 13  1  0
 13 14  1  1
 13 15  1  0
 15 16  1  6
 16 17  1  0
 17 18  2  0
 18 19  1  0
 19 20  2  0
 20 21  1  0
 21 22  2  0
 21 23  1  0
 23 24  1  0
 24 25  1  0
 25 26  2  0
 26 27  1  0
 27 28  1  0
 28 29  1  0
 29 30  2  0
 30 31  1  0
 31 32  2  0
 32 33  1  0
 33 34  1  0
 33 35  2  0
 31 36  1  0
 36 37  2  0
 36 38  1  0
  9 39  2  0
 22 17  1  0
 35 29  1  0
 38 15  1  0
 39  5  1  0
M  END
$$$$
