
     RDKit          3D

 39 42  0  0  0  0  0  0  0  0999 V2000
  -12.9846  -35.3473  -13.2477 C   0  0  0  0  0  0  0  0  0  0  0  0
  -12.7476  -36.8131  -13.5581 C   0  0  0  0  0  0  0  0  0  0  0  0
  -13.5234  -37.1545  -14.7932 C   0  0  0  0  0  0  0  0  0  0  0  0
  -11.2516  -36.9488  -13.8637 C   0  0  0  0  0  0  0  0  0  0  0  0
  -13.1105  -37.6553  -12.3931 C   0  0  0  0  0  0  0  0  0  0  0  0
  -13.1404  -39.0195  -12.5884 C   0  0  0  0  0  0  0  0  0  0  0  0
  -13.4807  -39.8030  -11.4978 C   0  0  0  0  0  0  0  0  0  0  0  0
  -13.7707  -39.2681  -10.2981 N   0  0  0  0  0  0  0  0  0  0  0  0
  -13.7478  -37.9330  -10.0832 C   0  0  0  0  0  0  0  0  0  0  0  0
  -14.0809  -37.4530   -8.7355 C   0  0  0  0  0  0  0  0  0  0  0  0
  -15.4607  -37.7500   -8.3711 N   0  0  0  0  0  0  0  0  0  0  0  0
  -15.5371  -37.8222   -6.9332 C   0  0  0  0  0  0  0  0  0  0  0  0
  -16.9165  -38.0770   -6.4387 C   0  0  1  0  0  0  0  0  0  0  0  0
  -17.7825  -37.1035   -6.9274 O   0  0  0  0  0  0  0  0  0  0  0  0
  -17.4575  -39.4501   -6.7347 C   0  0  2  0  0  0  0  0  0  0  0  0
  -18.4081  -39.9813   -5.7087 C   0  0  0  0  0  0  0  0  0  0  0  0
  -19.8459  -40.0618   -6.1241 C   0  0  0  0  0  0  0  0  0  0  0  0
  -20.6212  -39.1343   -5.3798 C   0  0  0  0  0  0  0  0  0  0  0  0
  -21.9698  -38.9773   -5.5256 C   0  0  0  0  0  0  0  0  0  0  0  0
  -22.5549  -39.7934   -6.4623 C   0  0  0  0  0  0  0  0  0  0  0  0
  -21.8329  -40.7280   -7.2241 C   0  0  0  0  0  0  0  0  0  0  0  0
  -20.4577  -40.8605   -7.0509 C   0  0  0  0  0  0  0  0  0  0  0  0
  -22.6680  -41.4121   -8.0827 O   0  0  0  0  0  0  0  0  0  0  0  0
  -23.0488  -42.6678   -8.4028 C   0  0  0  0  0  0  0  0  0  0  0  0
  -22.0999  -43.8321   -8.2076 C   0  0  0  0  0  0  0  0  0  0  0  0
  -21.4071  -44.2510   -7.2154 C   0  0  0  0  0  0  0  0  0  0  0  0
  -20.4567  -45.4107   -7.0049 C   0  0  0  0  0  0  0  0  0  0  0  0
  -19.2945  -45.3904   -7.8120 N   0  0  0  0  0  0  0  0  0  0  0  0
  -18.3971  -44.3145   -8.1768 C   0  0  0  0  0  0  0  0  0  0  0  0
  -17.7124  -43.3928   -7.4341 C   0  0  0  0  0  0  0  0  0  0  0  0
  -16.9326  -42.4989   -8.1529 C   0  0  0  0  0  0  0  0  0  0  0  0
  -16.8892  -42.5899   -9.5696 C   0  0  0  0  0  0  0  0  0  0  0  0
  -17.5870  -43.5266  -10.2936 C   0  0  0  0  0  0  0  0  0  0  0  0
  -17.4976  -43.5942  -12.0433 Cl  0  0  0  0  0  0  0  0  0  0  0  0
  -18.3145  -44.3531   -9.5697 N   0  0  0  0  0  0  0  0  0  0  0  0
  -16.0900  -41.3804   -7.7249 C   0  0  0  0  0  0  0  0  0  0  0  0
  -14.9137  -41.3273   -8.3043 O   0  0  0  0  0  0  0  0  0  0  0  0
  -16.2962  -40.3298   -6.8000 N   0  0  0  0  0  0  0  0  0  0  0  0
  -13.4137  -37.1345  -11.1473 C   0  0  0  0  0  0  0  0  0  0  0  0
  1  2  1  0
  2  3  1  0
  2  4  1  0
  2  5  1  0
  5  6  2  0
  6  7  1  0
  7  8  2  0
  8  9  1  0
  9 10  1  0
 10 11  1  0
 11 12  1  0
 12 13  1  0
 13 14  1  6
 13 15  1  0
 15 16  1  1
 16 17  1  0
 17 18  2  0
 18 19  1  0
 19 20  2  0
 20 21  1  0
 21 22  2  0
 21 23  1  0
 23 24  1  0
 24 25  1  0
 25 26  2  0
 26 27  1  0
 27 28  1  0
 28 29  1  0
 29 30  2  0
 30 31  1  0
 31 32  2  0
 32 33  1  0
 33 34  1  0
 33 35  2  0
 31 36  1  0
 36 37  2  0
 36 38  1  0
  9 39  2  0
 22 17  1  0
 35 29  1  0
 38 15  1  0
 39  5  1  0
M  END
$$$$
