
     RDKit          3D

 39 42  0  0  0  0  0  0  0  0999 V2000
  -10.1204  -35.8933  -12.7716 C   0  0  0  0  0  0  0  0  0  0  0  0
  -10.9239  -36.8802  -13.5971 C   0  0  0  0  0  0  0  0  0  0  0  0
  -11.7807  -36.0988  -14.5452 C   0  0  0  0  0  0  0  0  0  0  0  0
   -9.9046  -37.6889  -14.4077 C   0  0  0  0  0  0  0  0  0  0  0  0
  -11.7053  -37.7796  -12.7146 C   0  0  0  0  0  0  0  0  0  0  0  0
  -11.6884  -39.1250  -13.0143 C   0  0  0  0  0  0  0  0  0  0  0  0
  -12.4203  -39.9619  -12.1880 C   0  0  0  0  0  0  0  0  0  0  0  0
  -13.1195  -39.4944  -11.1380 N   0  0  0  0  0  0  0  0  0  0  0  0
  -13.1506  -38.1790  -10.8251 C   0  0  0  0  0  0  0  0  0  0  0  0
  -13.9452  -37.7740   -9.6579 C   0  0  0  0  0  0  0  0  0  0  0  0
  -15.0300  -38.7072   -9.3802 N   0  0  0  0  0  0  0  0  0  0  0  0
  -15.0732  -38.9307   -7.9565 C   0  0  0  0  0  0  0  0  0  0  0  0
  -16.3960  -38.6055   -7.3592 C   0  0  1  0  0  0  0  0  0  0  0  0
  -16.9085  -37.4510   -7.9429 O   0  0  0  0  0  0  0  0  0  0  0  0
  -17.4131  -39.7137   -7.4184 C   0  0  2  0  0  0  0  0  0  0  0  0
  -18.3863  -39.7292   -6.2821 C   0  0  0  0  0  0  0  0  0  0  0  0
  -19.7927  -39.3332   -6.6160 C   0  0  0  0  0  0  0  0  0  0  0  0
  -20.1147  -38.1016   -5.9878 C   0  0  0  0  0  0  0  0  0  0  0  0
  -21.3282  -37.4848   -6.0956 C   0  0  0  0  0  0  0  0  0  0  0  0
  -22.2513  -38.1433   -6.8702 C   0  0  0  0  0  0  0  0  0  0  0  0
  -21.9831  -39.3644   -7.5121 C   0  0  0  0  0  0  0  0  0  0  0  0
  -20.7335  -39.9647   -7.3822 C   0  0  0  0  0  0  0  0  0  0  0  0
  -23.0847  -39.8004   -8.2186 O   0  0  0  0  0  0  0  0  0  0  0  0
  -23.9135  -40.8613   -8.3264 C   0  0  0  0  0  0  0  0  0  0  0  0
  -23.4230  -42.2564   -7.9987 C   0  0  0  0  0  0  0  0  0  0  0  0
  -22.8307  -42.7700   -6.9861 C   0  0  0  0  0  0  0  0  0  0  0  0
  -22.3358  -44.1594   -6.6441 C   0  0  0  0  0  0  0  0  0  0  0  0
  -21.3250  -44.6647   -7.4958 N   0  0  0  0  0  0  0  0  0  0  0  0
  -20.1449  -44.0437   -8.0597 C   0  0  0  0  0  0  0  0  0  0  0  0
  -19.1106  -43.3484   -7.4972 C   0  0  0  0  0  0  0  0  0  0  0  0
  -18.1384  -42.8972   -8.3778 C   0  0  0  0  0  0  0  0  0  0  0  0
  -18.2669  -43.1755   -9.7646 C   0  0  0  0  0  0  0  0  0  0  0  0
  -19.3169  -43.8776  -10.3058 C   0  0  0  0  0  0  0  0  0  0  0  0
  -19.4264  -44.1928  -12.0270 Cl  0  0  0  0  0  0  0  0  0  0  0  0
  -20.2161  -44.2849   -9.4327 N   0  0  0  0  0  0  0  0  0  0  0  0
  -16.9180  -42.1172   -8.1630 C   0  0  0  0  0  0  0  0  0  0  0  0
  -15.8605  -42.5687   -8.7955 O   0  0  0  0  0  0  0  0  0  0  0  0
  -16.6495  -40.9560   -7.4006 N   0  0  0  0  0  0  0  0  0  0  0  0
  -12.4339  -37.3286  -11.6280 C   0  0  0  0  0  0  0  0  0  0  0  0
  1  2  1  0
  2  3  1  0
  2  4  1  0
  2  5  1  0
  5  6  2  0
  6  7  1  0
  7  8  2  0
  8  9  1  0
  9 10  1  0
 10 11  1  0
 11 12  1  0
 12 13  1  0
 13 14  1  6
 13 15  1  0
 15 16  1  1
 16 17  1  0
 17 18  2  0
 18 19  1  0
 19 20  2  0
 20 21  1  0
 21 22  2  0
 21 23  1  0
 23 24  1  0
 24 25  1  0
 25 26  2  0
 26 27  1  0
 27 28  1  0
 28 29  1  0
 29 30  2  0
 30 31  1  0
 31 32  2  0
 32 33  1  0
 33 34  1  0
 33 35  2  0
 31 36  1  0
 36 37  2  0
 36 38  1  0
  9 39  2  0
 22 17  1  0
 35 29  1  0
 38 15  1  0
 39  5  1  0
M  END
$$$$
