
     RDKit          3D

 39 42  0  0  0  0  0  0  0  0999 V2000
  -15.4880  -38.4876  -12.9137 C   0  0  0  0  0  0  0  0  0  0  0  0
  -14.5331  -37.3263  -13.1147 C   0  0  0  0  0  0  0  0  0  0  0  0
  -13.8793  -37.4927  -14.4521 C   0  0  0  0  0  0  0  0  0  0  0  0
  -15.3986  -36.0614  -13.1443 C   0  0  0  0  0  0  0  0  0  0  0  0
  -13.5606  -37.2551  -11.9978 C   0  0  0  0  0  0  0  0  0  0  0  0
  -12.3325  -36.6903  -12.2684 C   0  0  0  0  0  0  0  0  0  0  0  0
  -11.4264  -36.6263  -11.2226 C   0  0  0  0  0  0  0  0  0  0  0  0
  -11.7202  -37.0907   -9.9947 N   0  0  0  0  0  0  0  0  0  0  0  0
  -12.9181  -37.6486   -9.7063 C   0  0  0  0  0  0  0  0  0  0  0  0
  -13.1365  -38.1241   -8.3338 C   0  0  0  0  0  0  0  0  0  0  0  0
  -14.4282  -38.7815   -8.1783 N   0  0  0  0  0  0  0  0  0  0  0  0
  -15.3003  -37.8875   -7.4580 C   0  0  0  0  0  0  0  0  0  0  0  0
  -16.1563  -38.5892   -6.4644 C   0  0  1  0  0  0  0  0  0  0  0  0
  -16.9196  -37.6639   -5.7590 O   0  0  0  0  0  0  0  0  0  0  0  0
  -17.0400  -39.6678   -7.0316 C   0  0  2  0  0  0  0  0  0  0  0  0
  -17.8515  -40.4085   -6.0160 C   0  0  0  0  0  0  0  0  0  0  0  0
  -19.3249  -40.1342   -6.0252 C   0  0  0  0  0  0  0  0  0  0  0  0
  -19.7016  -39.4540   -4.8375 C   0  0  0  0  0  0  0  0  0  0  0  0
  -20.9811  -39.0737   -4.5495 C   0  0  0  0  0  0  0  0  0  0  0  0
  -21.9150  -39.3966   -5.5031 C   0  0  0  0  0  0  0  0  0  0  0  0
  -21.5942  -40.0697   -6.6944 C   0  0  0  0  0  0  0  0  0  0  0  0
  -20.2782  -40.4412   -6.9568 C   0  0  0  0  0  0  0  0  0  0  0  0
  -22.7205  -40.2667   -7.4660 O   0  0  0  0  0  0  0  0  0  0  0  0
  -23.4303  -41.2500   -8.0605 C   0  0  0  0  0  0  0  0  0  0  0  0
  -22.7465  -42.5201   -8.5224 C   0  0  0  0  0  0  0  0  0  0  0  0
  -21.9747  -43.3668   -7.9503 C   0  0  0  0  0  0  0  0  0  0  0  0
  -21.2854  -44.6386   -8.3973 C   0  0  0  0  0  0  0  0  0  0  0  0
  -20.3412  -44.4770   -9.4390 N   0  0  0  0  0  0  0  0  0  0  0  0
  -19.3215  -43.4742   -9.6641 C   0  0  0  0  0  0  0  0  0  0  0  0
  -18.3094  -42.9957   -8.8789 C   0  0  0  0  0  0  0  0  0  0  0  0
  -17.5158  -42.0127   -9.4516 C   0  0  0  0  0  0  0  0  0  0  0  0
  -17.7884  -41.5762  -10.7754 C   0  0  0  0  0  0  0  0  0  0  0  0
  -18.8125  -42.0737  -11.5449 C   0  0  0  0  0  0  0  0  0  0  0  0
  -19.1051  -41.4982  -13.1750 Cl  0  0  0  0  0  0  0  0  0  0  0  0
  -19.5402  -43.0037  -10.9599 N   0  0  0  0  0  0  0  0  0  0  0  0
  -16.3745  -41.2579   -8.9304 C   0  0  0  0  0  0  0  0  0  0  0  0
  -15.3624  -41.1527   -9.7591 O   0  0  0  0  0  0  0  0  0  0  0  0
  -16.1443  -40.6083   -7.6947 N   0  0  0  0  0  0  0  0  0  0  0  0
  -13.8337  -37.7241  -10.7249 C   0  0  0  0  0  0  0  0  0  0  0  0
  1  2  1  0
  2  3  1  0
  2  4  1  0
  2  5  1  0
  5  6  2  0
  6  7  1  0
  7  8  2  0
  8  9  1  0
  9 10  1  0
 10 11  1  0
 11 12  1  0
 12 13  1  0
 13 14  1  6
 13 15  1  0
 15 16  1  1
 16 17  1  0
 17 18  2  0
 18 19  1  0
 19 20  2  0
 20 21  1  0
 21 22  2  0
 21 23  1  0
 23 24  1  0
 24 25  1  0
 25 26  2  0
 26 27  1  0
 27 28  1  0
 28 29  1  0
 29 30  2  0
 30 31  1  0
 31 32  2  0
 32 33  1  0
 33 34  1  0
 33 35  2  0
 31 36  1  0
 36 37  2  0
 36 38  1  0
  9 39  2  0
 22 17  1  0
 35 29  1  0
 38 15  1  0
 39  5  1  0
M  END
$$$$
