
     RDKit          3D

 39 42  0  0  0  0  0  0  0  0999 V2000
  -11.7976  -37.1630  -13.9713 C   0  0  0  0  0  0  0  0  0  0  0  0
  -12.7325  -36.8938  -12.8074 C   0  0  0  0  0  0  0  0  0  0  0  0
  -12.6683  -35.4306  -12.4930 C   0  0  0  0  0  0  0  0  0  0  0  0
  -14.1430  -37.2283  -13.3060 C   0  0  0  0  0  0  0  0  0  0  0  0
  -12.3815  -37.7522  -11.6507 C   0  0  0  0  0  0  0  0  0  0  0  0
  -11.0545  -37.7960  -11.2799 C   0  0  0  0  0  0  0  0  0  0  0  0
  -10.7304  -38.5997  -10.1992 C   0  0  0  0  0  0  0  0  0  0  0  0
  -11.6596  -39.3097   -9.5342 N   0  0  0  0  0  0  0  0  0  0  0  0
  -12.9669  -39.2822   -9.8801 C   0  0  0  0  0  0  0  0  0  0  0  0
  -13.8994  -40.0948   -9.0878 C   0  0  0  0  0  0  0  0  0  0  0  0
  -15.2901  -39.7351   -9.3359 N   0  0  0  0  0  0  0  0  0  0  0  0
  -15.6028  -38.5800   -8.5317 C   0  0  0  0  0  0  0  0  0  0  0  0
  -16.2231  -38.9336   -7.2269 C   0  0  1  0  0  0  0  0  0  0  0  0
  -16.7412  -37.7917   -6.6235 O   0  0  0  0  0  0  0  0  0  0  0  0
  -17.2732  -40.0104   -7.2900 C   0  0  2  0  0  0  0  0  0  0  0  0
  -18.3076  -39.9378   -6.2114 C   0  0  0  0  0  0  0  0  0  0  0  0
  -19.6789  -39.5145   -6.6434 C   0  0  0  0  0  0  0  0  0  0  0  0
  -19.9921  -38.2431   -6.0949 C   0  0  0  0  0  0  0  0  0  0  0  0
  -21.1758  -37.5942   -6.3011 C   0  0  0  0  0  0  0  0  0  0  0  0
  -22.0770  -38.2611   -7.0941 C   0  0  0  0  0  0  0  0  0  0  0  0
  -21.8163  -39.5208   -7.6599 C   0  0  0  0  0  0  0  0  0  0  0  0
  -20.5973  -40.1534   -7.4304 C   0  0  0  0  0  0  0  0  0  0  0  0
  -22.8916  -39.9566   -8.4059 O   0  0  0  0  0  0  0  0  0  0  0  0
  -23.7495  -40.9946   -8.5092 C   0  0  0  0  0  0  0  0  0  0  0  0
  -23.3264  -42.3863   -8.0869 C   0  0  0  0  0  0  0  0  0  0  0  0
  -22.8089  -42.8670   -7.0187 C   0  0  0  0  0  0  0  0  0  0  0  0
  -22.3821  -44.2525   -6.5822 C   0  0  0  0  0  0  0  0  0  0  0  0
  -21.3439  -44.8319   -7.3497 N   0  0  0  0  0  0  0  0  0  0  0  0
  -20.1138  -44.2780   -7.8751 C   0  0  0  0  0  0  0  0  0  0  0  0
  -19.0886  -43.5885   -7.2891 C   0  0  0  0  0  0  0  0  0  0  0  0
  -18.0543  -43.2134   -8.1338 C   0  0  0  0  0  0  0  0  0  0  0  0
  -18.1156  -43.5568   -9.5106 C   0  0  0  0  0  0  0  0  0  0  0  0
  -19.1579  -44.2514  -10.0759 C   0  0  0  0  0  0  0  0  0  0  0  0
  -19.1831  -44.6492  -11.7833 Cl  0  0  0  0  0  0  0  0  0  0  0  0
  -20.1174  -44.5854   -9.2366 N   0  0  0  0  0  0  0  0  0  0  0  0
  -16.8213  -42.4629   -7.8881 C   0  0  0  0  0  0  0  0  0  0  0  0
  -15.7468  -42.9791   -8.4369 O   0  0  0  0  0  0  0  0  0  0  0  0
  -16.5552  -41.2739   -7.1687 N   0  0  0  0  0  0  0  0  0  0  0  0
  -13.3144  -38.4937  -10.9473 C   0  0  0  0  0  0  0  0  0  0  0  0
  1  2  1  0
  2  3  1  0
  2  4  1  0
  2  5  1  0
  5  6  2  0
  6  7  1  0
  7  8  2  0
  8  9  1  0
  9 10  1  0
 10 11  1  0
 11 12  1  0
 12 13  1  0
 13 14  1  6
 13 15  1  0
 15 16  1  1
 16 17  1  0
 17 18  2  0
 18 19  1  0
 19 20  2  0
 20 21  1  0
 21 22  2  0
 21 23  1  0
 23 24  1  0
 24 25  1  0
 25 26  2  0
 26 27  1  0
 27 28  1  0
 28 29  1  0
 29 30  2  0
 30 31  1  0
 31 32  2  0
 32 33  1  0
 33 34  1  0
 33 35  2  0
 31 36  1  0
 36 37  2  0
 36 38  1  0
  9 39  2  0
 22 17  1  0
 35 29  1  0
 38 15  1  0
 39  5  1  0
M  END
$$$$
