
     RDKit          3D

 39 42  0  0  0  0  0  0  0  0999 V2000
  -14.2534  -35.1348  -11.4634 C   0  0  0  0  0  0  0  0  0  0  0  0
  -13.2571  -36.0320  -12.1728 C   0  0  0  0  0  0  0  0  0  0  0  0
  -13.4389  -35.8474  -13.6482 C   0  0  0  0  0  0  0  0  0  0  0  0
  -11.8663  -35.5202  -11.7809 C   0  0  0  0  0  0  0  0  0  0  0  0
  -13.4256  -37.4396  -11.7386 C   0  0  0  0  0  0  0  0  0  0  0  0
  -12.9835  -38.4207  -12.6002 C   0  0  0  0  0  0  0  0  0  0  0  0
  -13.1435  -39.7345  -12.1913 C   0  0  0  0  0  0  0  0  0  0  0  0
  -13.7032  -40.0507  -11.0097 N   0  0  0  0  0  0  0  0  0  0  0  0
  -14.1440  -39.1053  -10.1487 C   0  0  0  0  0  0  0  0  0  0  0  0
  -14.7396  -39.5582   -8.8846 C   0  0  0  0  0  0  0  0  0  0  0  0
  -14.2901  -38.7629   -7.7486 N   0  0  0  0  0  0  0  0  0  0  0  0
  -15.1469  -39.0610   -6.6281 C   0  0  0  0  0  0  0  0  0  0  0  0
  -16.5618  -38.6651   -6.8597 C   0  0  1  0  0  0  0  0  0  0  0  0
  -16.6235  -37.6779   -7.8384 O   0  0  0  0  0  0  0  0  0  0  0  0
  -17.4935  -39.7966   -7.2029 C   0  0  2  0  0  0  0  0  0  0  0  0
  -18.7256  -39.8692   -6.3572 C   0  0  0  0  0  0  0  0  0  0  0  0
  -20.0104  -39.4997   -7.0348 C   0  0  0  0  0  0  0  0  0  0  0  0
  -20.5224  -38.2950   -6.4854 C   0  0  0  0  0  0  0  0  0  0  0  0
  -21.6863  -37.7064   -6.8901 C   0  0  0  0  0  0  0  0  0  0  0  0
  -22.3571  -38.3659   -7.8905 C   0  0  0  0  0  0  0  0  0  0  0  0
  -21.8938  -39.5609   -8.4669 C   0  0  0  0  0  0  0  0  0  0  0  0
  -20.7014  -40.1328   -8.0311 C   0  0  0  0  0  0  0  0  0  0  0  0
  -22.7616  -40.0045   -9.4430 O   0  0  0  0  0  0  0  0  0  0  0  0
  -23.5005  -41.0826   -9.7836 C   0  0  0  0  0  0  0  0  0  0  0  0
  -23.0667  -42.4735   -9.3696 C   0  0  0  0  0  0  0  0  0  0  0  0
  -22.7392  -43.0006   -8.2494 C   0  0  0  0  0  0  0  0  0  0  0  0
  -22.3051  -44.3861   -7.8203 C   0  0  0  0  0  0  0  0  0  0  0  0
  -21.0933  -44.8412   -8.3924 N   0  0  0  0  0  0  0  0  0  0  0  0
  -19.8283  -44.1746   -8.6191 C   0  0  0  0  0  0  0  0  0  0  0  0
  -18.9965  -43.4695   -7.7940 C   0  0  0  0  0  0  0  0  0  0  0  0
  -17.8452  -42.9688   -8.3838 C   0  0  0  0  0  0  0  0  0  0  0  0
  -17.6030  -43.2106   -9.7622 C   0  0  0  0  0  0  0  0  0  0  0  0
  -18.4552  -43.9234  -10.5709 C   0  0  0  0  0  0  0  0  0  0  0  0
  -18.1074  -44.1922  -12.2682 Cl  0  0  0  0  0  0  0  0  0  0  0  0
  -19.5356  -44.3781   -9.9686 N   0  0  0  0  0  0  0  0  0  0  0  0
  -16.7468  -42.1645   -7.8446 C   0  0  0  0  0  0  0  0  0  0  0  0
  -15.5482  -42.5708   -8.1917 O   0  0  0  0  0  0  0  0  0  0  0  0
  -16.7210  -41.0191   -7.0145 N   0  0  0  0  0  0  0  0  0  0  0  0
  -13.9973  -37.7959  -10.5298 C   0  0  0  0  0  0  0  0  0  0  0  0
  1  2  1  0
  2  3  1  0
  2  4  1  0
  2  5  1  0
  5  6  2  0
  6  7  1  0
  7  8  2  0
  8  9  1  0
  9 10  1  0
 10 11  1  0
 11 12  1  0
 12 13  1  0
 13 14  1  6
 13 15  1  0
 15 16  1  1
 16 17  1  0
 17 18  2  0
 18 19  1  0
 19 20  2  0
 20 21  1  0
 21 22  2  0
 21 23  1  0
 23 24  1  0
 24 25  1  0
 25 26  2  0
 26 27  1  0
 27 28  1  0
 28 29  1  0
 29 30  2  0
 30 31  1  0
 31 32  2  0
 32 33  1  0
 33 34  1  0
 33 35  2  0
 31 36  1  0
 36 37  2  0
 36 38  1  0
  9 39  2  0
 22 17  1  0
 35 29  1  0
 38 15  1  0
 39  5  1  0
M  END
$$$$
