
     RDKit          3D

 39 42  0  0  0  0  0  0  0  0999 V2000
  -22.3986  -38.6616   -7.6160 C   0  0  0  0  0  0  0  0  0  0  0  0
  -22.1439  -39.2743   -6.2520 C   0  0  0  0  0  0  0  0  0  0  0  0
  -21.3840  -38.2768   -5.4327 C   0  0  0  0  0  0  0  0  0  0  0  0
  -23.5218  -39.4866   -5.6147 C   0  0  0  0  0  0  0  0  0  0  0  0
  -21.4382  -40.5710   -6.3893 C   0  0  0  0  0  0  0  0  0  0  0  0
  -22.2160  -41.7080   -6.4389 C   0  0  0  0  0  0  0  0  0  0  0  0
  -21.5531  -42.9176   -6.5665 C   0  0  0  0  0  0  0  0  0  0  0  0
  -20.2119  -42.9917   -6.6397 N   0  0  0  0  0  0  0  0  0  0  0  0
  -19.4288  -41.8899   -6.5931 C   0  0  0  0  0  0  0  0  0  0  0  0
  -17.9752  -42.0818   -6.6811 C   0  0  0  0  0  0  0  0  0  0  0  0
  -17.2573  -40.8159   -6.7661 N   0  0  0  0  0  0  0  0  0  0  0  0
  -18.2297  -39.7588   -6.8910 C   0  0  0  0  0  0  0  0  0  0  0  0
  -17.7300  -38.6029   -7.6826 C   0  0  1  0  0  0  0  0  0  0  0  0
  -16.9195  -37.7987   -6.8871 O   0  0  0  0  0  0  0  0  0  0  0  0
  -17.0143  -38.9634   -8.9569 C   0  0  2  0  0  0  0  0  0  0  0  0
  -17.1948  -37.9834  -10.0730 C   0  0  0  0  0  0  0  0  0  0  0  0
  -15.9932  -37.1596  -10.4249 C   0  0  0  0  0  0  0  0  0  0  0  0
  -16.2222  -35.7979  -10.0954 C   0  0  0  0  0  0  0  0  0  0  0  0
  -15.3146  -34.7994  -10.3054 C   0  0  0  0  0  0  0  0  0  0  0  0
  -14.1289  -35.1976  -10.8722 C   0  0  0  0  0  0  0  0  0  0  0  0
  -13.8533  -36.5317  -11.2177 C   0  0  0  0  0  0  0  0  0  0  0  0
  -14.8014  -37.5252  -10.9877 C   0  0  0  0  0  0  0  0  0  0  0  0
  -12.5943  -36.6464  -11.7694 O   0  0  0  0  0  0  0  0  0  0  0  0
  -11.9692  -37.0851  -12.8834 C   0  0  0  0  0  0  0  0  0  0  0  0
  -12.5611  -38.2129  -13.7032 C   0  0  0  0  0  0  0  0  0  0  0  0
  -13.7147  -38.4194  -14.2195 C   0  0  0  0  0  0  0  0  0  0  0  0
  -14.3200  -39.5385  -15.0402 C   0  0  0  0  0  0  0  0  0  0  0  0
  -14.3818  -40.7947  -14.3917 N   0  0  0  0  0  0  0  0  0  0  0  0
  -14.7548  -41.1616  -13.0417 C   0  0  0  0  0  0  0  0  0  0  0  0
  -15.8587  -40.8869  -12.2831 C   0  0  0  0  0  0  0  0  0  0  0  0
  -15.8601  -41.4245  -11.0044 C   0  0  0  0  0  0  0  0  0  0  0  0
  -14.7547  -42.2044  -10.5719 C   0  0  0  0  0  0  0  0  0  0  0  0
  -13.6560  -42.4668  -11.3543 C   0  0  0  0  0  0  0  0  0  0  0  0
  -12.3173  -43.4364  -10.7697 Cl  0  0  0  0  0  0  0  0  0  0  0  0
  -13.6977  -41.9352  -12.5595 N   0  0  0  0  0  0  0  0  0  0  0  0
  -16.8323  -41.3360   -9.9130 C   0  0  0  0  0  0  0  0  0  0  0  0
  -17.0865  -42.4744   -9.3118 O   0  0  0  0  0  0  0  0  0  0  0  0
  -17.5601  -40.2514   -9.3691 N   0  0  0  0  0  0  0  0  0  0  0  0
  -20.0608  -40.6791   -6.4670 C   0  0  0  0  0  0  0  0  0  0  0  0
  1  2  1  0
  2  3  1  0
  2  4  1  0
  2  5  1  0
  5  6  2  0
  6  7  1  0
  7  8  2  0
  8  9  1  0
  9 10  1  0
 10 11  1  0
 11 12  1  0
 12 13  1  0
 13 14  1  1
 13 15  1  0
 15 16  1  6
 16 17  1  0
 17 18  2  0
 18 19  1  0
 19 20  2  0
 20 21  1  0
 21 22  2  0
 21 23  1  0
 23 24  1  0
 24 25  1  0
 25 26  2  0
 26 27  1  0
 27 28  1  0
 28 29  1  0
 29 30  2  0
 30 31  1  0
 31 32  2  0
 32 33  1  0
 33 34  1  0
 33 35  2  0
 31 36  1  0
 36 37  2  0
 36 38  1  0
  9 39  2  0
 22 17  1  0
 35 29  1  0
 38 15  1  0
 39  5  1  0
M  END
$$$$
