
     RDKit          3D

 39 42  0  0  0  0  0  0  0  0999 V2000
  -22.9275  -43.1882   -9.8117 C   0  0  0  0  0  0  0  0  0  0  0  0
  -22.1922  -42.4617   -8.7015 C   0  0  0  0  0  0  0  0  0  0  0  0
  -21.4127  -41.3421   -9.3200 C   0  0  0  0  0  0  0  0  0  0  0  0
  -23.2727  -41.8652   -7.7923 C   0  0  0  0  0  0  0  0  0  0  0  0
  -21.3437  -43.4066   -7.9363 C   0  0  0  0  0  0  0  0  0  0  0  0
  -21.9441  -44.0979   -6.9058 C   0  0  0  0  0  0  0  0  0  0  0  0
  -21.1479  -44.9791   -6.1927 C   0  0  0  0  0  0  0  0  0  0  0  0
  -19.8470  -45.1603   -6.4835 N   0  0  0  0  0  0  0  0  0  0  0  0
  -19.2370  -44.4933   -7.4896 C   0  0  0  0  0  0  0  0  0  0  0  0
  -17.8125  -44.7650   -7.7232 C   0  0  0  0  0  0  0  0  0  0  0  0
  -17.1228  -43.6212   -8.3073 N   0  0  0  0  0  0  0  0  0  0  0  0
  -16.3830  -42.9632   -7.2593 C   0  0  0  0  0  0  0  0  0  0  0  0
  -15.7405  -41.6996   -7.7097 C   0  0  1  0  0  0  0  0  0  0  0  0
  -15.0003  -41.9300   -8.8653 O   0  0  0  0  0  0  0  0  0  0  0  0
  -16.6818  -40.5433   -7.9171 C   0  0  2  0  0  0  0  0  0  0  0  0
  -16.0254  -39.1988   -7.9321 C   0  0  0  0  0  0  0  0  0  0  0  0
  -15.9637  -38.5126   -9.2631 C   0  0  0  0  0  0  0  0  0  0  0  0
  -14.6173  -38.4251   -9.7046 C   0  0  0  0  0  0  0  0  0  0  0  0
  -14.2364  -37.8440  -10.8802 C   0  0  0  0  0  0  0  0  0  0  0  0
  -15.2610  -37.3311  -11.6370 C   0  0  0  0  0  0  0  0  0  0  0  0
  -16.6092  -37.3911  -11.2449 C   0  0  0  0  0  0  0  0  0  0  0  0
  -16.9624  -37.9930  -10.0400 C   0  0  0  0  0  0  0  0  0  0  0  0
  -17.4224  -36.7993  -12.1890 O   0  0  0  0  0  0  0  0  0  0  0  0
  -18.3505  -35.8266  -12.3177 C   0  0  0  0  0  0  0  0  0  0  0  0
  -19.2317  -35.4452  -11.1463 C   0  0  0  0  0  0  0  0  0  0  0  0
  -18.9942  -35.1146   -9.9322 C   0  0  0  0  0  0  0  0  0  0  0  0
  -19.8620  -34.7308   -8.7524 C   0  0  0  0  0  0  0  0  0  0  0  0
  -20.7522  -35.7370   -8.3077 N   0  0  0  0  0  0  0  0  0  0  0  0
  -20.5729  -37.1603   -8.1126 C   0  0  0  0  0  0  0  0  0  0  0  0
  -19.6463  -37.8862   -7.4167 C   0  0  0  0  0  0  0  0  0  0  0  0
  -19.8023  -39.2638   -7.4621 C   0  0  0  0  0  0  0  0  0  0  0  0
  -20.8791  -39.8223   -8.2008 C   0  0  0  0  0  0  0  0  0  0  0  0
  -21.7984  -39.0704   -8.8922 C   0  0  0  0  0  0  0  0  0  0  0  0
  -23.1096  -39.8122   -9.7892 Cl  0  0  0  0  0  0  0  0  0  0  0  0
  -21.6102  -37.7680   -8.8220 N   0  0  0  0  0  0  0  0  0  0  0  0
  -19.0172  -40.3515   -6.8751 C   0  0  0  0  0  0  0  0  0  0  0  0
  -19.7285  -41.2926   -6.3002 O   0  0  0  0  0  0  0  0  0  0  0  0
  -17.6249  -40.5938   -6.8059 N   0  0  0  0  0  0  0  0  0  0  0  0
  -20.0035  -43.6142   -8.2115 C   0  0  0  0  0  0  0  0  0  0  0  0
  1  2  1  0
  2  3  1  0
  2  4  1  0
  2  5  1  0
  5  6  2  0
  6  7  1  0
  7  8  2  0
  8  9  1  0
  9 10  1  0
 10 11  1  0
 11 12  1  0
 12 13  1  0
 13 14  1  6
 13 15  1  0
 15 16  1  1
 16 17  1  0
 17 18  2  0
 18 19  1  0
 19 20  2  0
 20 21  1  0
 21 22  2  0
 21 23  1  0
 23 24  1  0
 24 25  1  0
 25 26  2  0
 26 27  1  0
 27 28  1  0
 28 29  1  0
 29 30  2  0
 30 31  1  0
 31 32  2  0
 32 33  1  0
 33 34  1  0
 33 35  2  0
 31 36  1  0
 36 37  2  0
 36 38  1  0
  9 39  2  0
 22 17  1  0
 35 29  1  0
 38 15  1  0
 39  5  1  0
M  END
$$$$
